*SPEF "ieee 1481-1999"
*DESIGN "tt_um_felixfeierabend"
*DATE "20:34:49 Thursday November 27, 2025"
*VENDOR "The OpenROAD Project"
*PROGRAM "OpenROAD"
*VERSION "v2.0-16235-gedf00dff9"
*DESIGN_FLOW "NAME_SCOPE LOCAL" "PIN_CAP NONE"
*DIVIDER /
*DELIMITER :
*BUS_DELIMITER []
*T_UNIT 1 NS
*C_UNIT 1 PF
*R_UNIT 1 OHM
*L_UNIT 1 HENRY

*NAME_MAP
*3 clk
*4 ena
*5 rst_n
*6 ui_in[0]
*7 ui_in[1]
*8 ui_in[2]
*9 ui_in[3]
*10 ui_in[4]
*11 ui_in[5]
*12 ui_in[6]
*13 ui_in[7]
*14 uio_in[0]
*15 uio_in[1]
*16 uio_in[2]
*17 uio_in[3]
*18 uio_in[4]
*19 uio_in[5]
*20 uio_in[6]
*21 uio_in[7]
*22 net47
*23 net48
*24 net49
*25 net17
*26 net18
*27 net19
*28 net20
*29 net21
*30 net22
*31 net23
*32 net24
*33 net25
*34 net26
*35 net27
*36 net28
*37 net29
*38 uo_out[0]
*39 net30
*40 net31
*41 net32
*42 net33
*43 net34
*44 net35
*45 net36
*46 _000_
*47 _003_
*48 _004_
*49 _005_
*50 _006_
*51 _007_
*52 _012_
*53 _015_
*54 _016_
*55 _017_
*56 _018_
*57 _019_
*58 _020_
*59 _021_
*60 _024_
*61 _025_
*62 _026_
*63 _027_
*64 _028_
*65 _029_
*66 _030_
*67 _031_
*68 _032_
*69 _033_
*70 _034_
*71 _035_
*72 _036_
*73 _037_
*74 _038_
*75 _039_
*76 _040_
*77 _041_
*78 _042_
*79 _043_
*80 _044_
*81 _045_
*82 _046_
*83 _047_
*84 _048_
*85 _049_
*86 _050_
*87 _051_
*88 _052_
*89 _053_
*90 _054_
*91 _055_
*92 _056_
*93 _057_
*94 _058_
*95 _059_
*96 _060_
*97 _061_
*98 _062_
*99 _063_
*100 _064_
*101 _065_
*102 _066_
*103 _067_
*104 _068_
*105 _069_
*106 _070_
*107 _071_
*108 _072_
*109 _073_
*110 _074_
*111 _075_
*112 _076_
*113 _077_
*114 _078_
*115 _079_
*116 _080_
*117 _081_
*118 _082_
*119 _083_
*120 _084_
*121 _085_
*122 _086_
*123 _087_
*124 _088_
*125 _089_
*126 _090_
*127 _091_
*128 _092_
*129 _093_
*130 _094_
*131 _095_
*132 _096_
*133 _097_
*134 _098_
*135 _099_
*136 _100_
*137 _101_
*138 _102_
*139 _103_
*140 _104_
*141 _105_
*142 _106_
*143 _107_
*144 _108_
*145 _109_
*146 _110_
*147 _111_
*148 _112_
*149 clk_scaled
*150 clk_scaler\.counter\[0\]
*151 clk_scaler\.counter\[10\]
*152 clk_scaler\.counter\[11\]
*153 clk_scaler\.counter\[1\]
*154 clk_scaler\.counter\[2\]
*155 clk_scaler\.counter\[3\]
*156 clk_scaler\.counter\[4\]
*157 clk_scaler\.counter\[5\]
*158 clk_scaler\.counter\[6\]
*159 clk_scaler\.counter\[7\]
*160 clk_scaler\.counter\[8\]
*161 clk_scaler\.counter\[9\]
*162 clknet_0_clk
*163 clknet_1_0__leaf_clk
*164 clknet_1_1__leaf_clk
*165 net1
*166 net10
*167 net11
*168 net12
*169 net13
*170 net14
*171 net15
*172 net16
*173 net2
*174 net3
*175 net37
*176 net38
*177 net39
*178 net4
*179 net40
*180 net41
*181 net42
*182 net43
*183 net44
*184 net45
*185 net46
*186 net5
*187 net6
*188 net7
*189 net8
*190 net9
*191 signal_bit
*192 signal_gen\.enableA
*193 signal_gen\.periodA\[0\]
*194 signal_gen\.periodA\[1\]
*195 signal_gen\.periodA\[2\]
*196 signal_gen\.periodA\[3\]
*197 signal_gen\.periodA\[4\]
*198 signal_gen\.tonegenA\.counter\[0\]
*199 signal_gen\.tonegenA\.counter\[10\]
*200 signal_gen\.tonegenA\.counter\[11\]
*201 signal_gen\.tonegenA\.counter\[1\]
*202 signal_gen\.tonegenA\.counter\[2\]
*203 signal_gen\.tonegenA\.counter\[3\]
*204 signal_gen\.tonegenA\.counter\[4\]
*205 signal_gen\.tonegenA\.counter\[5\]
*206 signal_gen\.tonegenA\.counter\[6\]
*207 signal_gen\.tonegenA\.counter\[7\]
*208 signal_gen\.tonegenA\.counter\[8\]
*209 signal_gen\.tonegenA\.counter\[9\]
*210 FILLER_0_104
*211 FILLER_0_115
*212 FILLER_0_129
*213 FILLER_0_138
*214 FILLER_0_149
*215 FILLER_0_155
*216 FILLER_0_161
*217 FILLER_0_169
*218 FILLER_0_178
*219 FILLER_0_194
*220 FILLER_0_2
*221 FILLER_0_202
*222 FILLER_0_210
*223 FILLER_0_226
*224 FILLER_0_228
*225 FILLER_0_233
*226 FILLER_0_237
*227 FILLER_0_240
*228 FILLER_0_256
*229 FILLER_0_264
*230 FILLER_0_268
*231 FILLER_0_270
*232 FILLER_0_36
*233 FILLER_0_70
*234 FILLER_0_86
*235 FILLER_0_94
*236 FILLER_10_104
*237 FILLER_10_107
*238 FILLER_10_115
*239 FILLER_10_124
*240 FILLER_10_128
*241 FILLER_10_147
*242 FILLER_10_158
*243 FILLER_10_174
*244 FILLER_10_187
*245 FILLER_10_195
*246 FILLER_10_2
*247 FILLER_10_22
*248 FILLER_10_224
*249 FILLER_10_240
*250 FILLER_10_244
*251 FILLER_10_251
*252 FILLER_10_267
*253 FILLER_10_30
*254 FILLER_10_34
*255 FILLER_10_50
*256 FILLER_10_52
*257 FILLER_11_10
*258 FILLER_11_133
*259 FILLER_11_135
*260 FILLER_11_165
*261 FILLER_11_2
*262 FILLER_11_218
*263 FILLER_11_253
*264 FILLER_11_269
*265 FILLER_11_45
*266 FILLER_11_76
*267 FILLER_11_92
*268 FILLER_11_94
*269 FILLER_12_103
*270 FILLER_12_115
*271 FILLER_12_124
*272 FILLER_12_140
*273 FILLER_12_157
*274 FILLER_12_16
*275 FILLER_12_204
*276 FILLER_12_243
*277 FILLER_12_247
*278 FILLER_12_263
*279 FILLER_12_32
*280 FILLER_12_34
*281 FILLER_12_37
*282 FILLER_12_8
*283 FILLER_12_91
*284 FILLER_12_99
*285 FILLER_13_146
*286 FILLER_13_162
*287 FILLER_13_166
*288 FILLER_13_168
*289 FILLER_13_191
*290 FILLER_13_2
*291 FILLER_13_207
*292 FILLER_13_209
*293 FILLER_13_212
*294 FILLER_13_244
*295 FILLER_13_260
*296 FILLER_13_268
*297 FILLER_13_270
*298 FILLER_13_53
*299 FILLER_14_10
*300 FILLER_14_100
*301 FILLER_14_104
*302 FILLER_14_115
*303 FILLER_14_123
*304 FILLER_14_133
*305 FILLER_14_137
*306 FILLER_14_16
*307 FILLER_14_172
*308 FILLER_14_174
*309 FILLER_14_177
*310 FILLER_14_2
*311 FILLER_14_215
*312 FILLER_14_231
*313 FILLER_14_239
*314 FILLER_14_243
*315 FILLER_14_247
*316 FILLER_14_263
*317 FILLER_14_32
*318 FILLER_14_34
*319 FILLER_14_37
*320 FILLER_14_47
*321 FILLER_14_63
*322 FILLER_14_65
*323 FILLER_15_111
*324 FILLER_15_127
*325 FILLER_15_129
*326 FILLER_15_150
*327 FILLER_15_166
*328 FILLER_15_187
*329 FILLER_15_203
*330 FILLER_15_207
*331 FILLER_15_209
*332 FILLER_15_212
*333 FILLER_15_244
*334 FILLER_15_260
*335 FILLER_15_268
*336 FILLER_15_270
*337 FILLER_15_76
*338 FILLER_16_10
*339 FILLER_16_100
*340 FILLER_16_104
*341 FILLER_16_107
*342 FILLER_16_171
*343 FILLER_16_177
*344 FILLER_16_18
*345 FILLER_16_2
*346 FILLER_16_241
*347 FILLER_16_247
*348 FILLER_16_263
*349 FILLER_16_34
*350 FILLER_16_37
*351 FILLER_16_92
*352 FILLER_17_122
*353 FILLER_17_138
*354 FILLER_17_142
*355 FILLER_17_2
*356 FILLER_17_206
*357 FILLER_17_212
*358 FILLER_17_244
*359 FILLER_17_260
*360 FILLER_17_268
*361 FILLER_17_270
*362 FILLER_17_41
*363 FILLER_17_46
*364 FILLER_17_6
*365 FILLER_17_62
*366 FILLER_17_90
*367 FILLER_18_101
*368 FILLER_18_107
*369 FILLER_18_171
*370 FILLER_18_177
*371 FILLER_18_2
*372 FILLER_18_241
*373 FILLER_18_247
*374 FILLER_18_263
*375 FILLER_18_34
*376 FILLER_18_37
*377 FILLER_19_136
*378 FILLER_19_142
*379 FILLER_19_2
*380 FILLER_19_206
*381 FILLER_19_212
*382 FILLER_19_244
*383 FILLER_19_260
*384 FILLER_19_264
*385 FILLER_19_266
*386 FILLER_19_66
*387 FILLER_19_72
*388 FILLER_1_100
*389 FILLER_1_102
*390 FILLER_1_142
*391 FILLER_1_158
*392 FILLER_1_190
*393 FILLER_1_2
*394 FILLER_1_206
*395 FILLER_1_212
*396 FILLER_1_244
*397 FILLER_1_260
*398 FILLER_1_264
*399 FILLER_1_266
*400 FILLER_1_66
*401 FILLER_1_72
*402 FILLER_1_88
*403 FILLER_1_96
*404 FILLER_20_101
*405 FILLER_20_107
*406 FILLER_20_171
*407 FILLER_20_177
*408 FILLER_20_2
*409 FILLER_20_241
*410 FILLER_20_247
*411 FILLER_20_263
*412 FILLER_20_34
*413 FILLER_20_37
*414 FILLER_21_136
*415 FILLER_21_142
*416 FILLER_21_2
*417 FILLER_21_206
*418 FILLER_21_212
*419 FILLER_21_244
*420 FILLER_21_260
*421 FILLER_21_264
*422 FILLER_21_266
*423 FILLER_21_66
*424 FILLER_21_72
*425 FILLER_22_101
*426 FILLER_22_104
*427 FILLER_22_112
*428 FILLER_22_114
*429 FILLER_22_119
*430 FILLER_22_127
*431 FILLER_22_129
*432 FILLER_22_138
*433 FILLER_22_155
*434 FILLER_22_161
*435 FILLER_22_167
*436 FILLER_22_169
*437 FILLER_22_180
*438 FILLER_22_185
*439 FILLER_22_191
*440 FILLER_22_197
*441 FILLER_22_2
*442 FILLER_22_203
*443 FILLER_22_206
*444 FILLER_22_240
*445 FILLER_22_256
*446 FILLER_22_264
*447 FILLER_22_268
*448 FILLER_22_270
*449 FILLER_22_36
*450 FILLER_22_70
*451 FILLER_22_78
*452 FILLER_22_83
*453 FILLER_22_99
*454 FILLER_2_107
*455 FILLER_2_119
*456 FILLER_2_121
*457 FILLER_2_159
*458 FILLER_2_177
*459 FILLER_2_2
*460 FILLER_2_241
*461 FILLER_2_247
*462 FILLER_2_263
*463 FILLER_2_34
*464 FILLER_2_37
*465 FILLER_2_69
*466 FILLER_3_130
*467 FILLER_3_138
*468 FILLER_3_146
*469 FILLER_3_154
*470 FILLER_3_156
*471 FILLER_3_191
*472 FILLER_3_2
*473 FILLER_3_207
*474 FILLER_3_209
*475 FILLER_3_212
*476 FILLER_3_244
*477 FILLER_3_260
*478 FILLER_3_264
*479 FILLER_3_266
*480 FILLER_3_66
*481 FILLER_3_72
*482 FILLER_3_88
*483 FILLER_4_104
*484 FILLER_4_111
*485 FILLER_4_157
*486 FILLER_4_173
*487 FILLER_4_183
*488 FILLER_4_187
*489 FILLER_4_192
*490 FILLER_4_2
*491 FILLER_4_208
*492 FILLER_4_210
*493 FILLER_4_251
*494 FILLER_4_34
*495 FILLER_4_37
*496 FILLER_4_53
*497 FILLER_4_93
*498 FILLER_4_97
*499 FILLER_4_99
*500 FILLER_5_132
*501 FILLER_5_142
*502 FILLER_5_159
*503 FILLER_5_2
*504 FILLER_5_209
*505 FILLER_5_231
*506 FILLER_5_263
*507 FILLER_5_37
*508 FILLER_5_53
*509 FILLER_5_65
*510 FILLER_5_69
*511 FILLER_5_72
*512 FILLER_6_102
*513 FILLER_6_104
*514 FILLER_6_111
*515 FILLER_6_134
*516 FILLER_6_138
*517 FILLER_6_163
*518 FILLER_6_171
*519 FILLER_6_177
*520 FILLER_6_185
*521 FILLER_6_2
*522 FILLER_6_204
*523 FILLER_6_210
*524 FILLER_6_214
*525 FILLER_6_224
*526 FILLER_6_240
*527 FILLER_6_244
*528 FILLER_6_247
*529 FILLER_6_255
*530 FILLER_6_34
*531 FILLER_6_37
*532 FILLER_6_53
*533 FILLER_6_57
*534 FILLER_6_59
*535 FILLER_6_68
*536 FILLER_6_80
*537 FILLER_6_84
*538 FILLER_6_90
*539 FILLER_6_98
*540 FILLER_7_106
*541 FILLER_7_110
*542 FILLER_7_142
*543 FILLER_7_146
*544 FILLER_7_173
*545 FILLER_7_175
*546 FILLER_7_18
*547 FILLER_7_2
*548 FILLER_7_201
*549 FILLER_7_203
*550 FILLER_7_22
*551 FILLER_7_220
*552 FILLER_7_266
*553 FILLER_7_270
*554 FILLER_7_63
*555 FILLER_7_67
*556 FILLER_7_69
*557 FILLER_8_10
*558 FILLER_8_103
*559 FILLER_8_107
*560 FILLER_8_123
*561 FILLER_8_157
*562 FILLER_8_17
*563 FILLER_8_173
*564 FILLER_8_192
*565 FILLER_8_2
*566 FILLER_8_200
*567 FILLER_8_204
*568 FILLER_8_206
*569 FILLER_8_223
*570 FILLER_8_239
*571 FILLER_8_243
*572 FILLER_8_25
*573 FILLER_8_251
*574 FILLER_8_267
*575 FILLER_8_87
*576 FILLER_9_104
*577 FILLER_9_139
*578 FILLER_9_148
*579 FILLER_9_152
*580 FILLER_9_191
*581 FILLER_9_199
*582 FILLER_9_2
*583 FILLER_9_203
*584 FILLER_9_212
*585 FILLER_9_214
*586 FILLER_9_249
*587 FILLER_9_265
*588 FILLER_9_269
*589 FILLER_9_53
*590 FILLER_9_67
*591 FILLER_9_69
*592 FILLER_9_88
*593 PHY_EDGE_ROW_0_Left_23
*594 PHY_EDGE_ROW_0_Right_0
*595 PHY_EDGE_ROW_10_Left_33
*596 PHY_EDGE_ROW_10_Right_10
*597 PHY_EDGE_ROW_11_Left_34
*598 PHY_EDGE_ROW_11_Right_11
*599 PHY_EDGE_ROW_12_Left_35
*600 PHY_EDGE_ROW_12_Right_12
*601 PHY_EDGE_ROW_13_Left_36
*602 PHY_EDGE_ROW_13_Right_13
*603 PHY_EDGE_ROW_14_Left_37
*604 PHY_EDGE_ROW_14_Right_14
*605 PHY_EDGE_ROW_15_Left_38
*606 PHY_EDGE_ROW_15_Right_15
*607 PHY_EDGE_ROW_16_Left_39
*608 PHY_EDGE_ROW_16_Right_16
*609 PHY_EDGE_ROW_17_Left_40
*610 PHY_EDGE_ROW_17_Right_17
*611 PHY_EDGE_ROW_18_Left_41
*612 PHY_EDGE_ROW_18_Right_18
*613 PHY_EDGE_ROW_19_Left_42
*614 PHY_EDGE_ROW_19_Right_19
*615 PHY_EDGE_ROW_1_Left_24
*616 PHY_EDGE_ROW_1_Right_1
*617 PHY_EDGE_ROW_20_Left_43
*618 PHY_EDGE_ROW_20_Right_20
*619 PHY_EDGE_ROW_21_Left_44
*620 PHY_EDGE_ROW_21_Right_21
*621 PHY_EDGE_ROW_22_Left_45
*622 PHY_EDGE_ROW_22_Right_22
*623 PHY_EDGE_ROW_2_Left_25
*624 PHY_EDGE_ROW_2_Right_2
*625 PHY_EDGE_ROW_3_Left_26
*626 PHY_EDGE_ROW_3_Right_3
*627 PHY_EDGE_ROW_4_Left_27
*628 PHY_EDGE_ROW_4_Right_4
*629 PHY_EDGE_ROW_5_Left_28
*630 PHY_EDGE_ROW_5_Right_5
*631 PHY_EDGE_ROW_6_Left_29
*632 PHY_EDGE_ROW_6_Right_6
*633 PHY_EDGE_ROW_7_Left_30
*634 PHY_EDGE_ROW_7_Right_7
*635 PHY_EDGE_ROW_8_Left_31
*636 PHY_EDGE_ROW_8_Right_8
*637 PHY_EDGE_ROW_9_Left_32
*638 PHY_EDGE_ROW_9_Right_9
*639 TAP_TAPCELL_ROW_0_46
*640 TAP_TAPCELL_ROW_0_47
*641 TAP_TAPCELL_ROW_0_48
*642 TAP_TAPCELL_ROW_0_49
*643 TAP_TAPCELL_ROW_0_50
*644 TAP_TAPCELL_ROW_0_51
*645 TAP_TAPCELL_ROW_0_52
*646 TAP_TAPCELL_ROW_10_84
*647 TAP_TAPCELL_ROW_10_85
*648 TAP_TAPCELL_ROW_10_86
*649 TAP_TAPCELL_ROW_10_87
*650 TAP_TAPCELL_ROW_11_88
*651 TAP_TAPCELL_ROW_11_89
*652 TAP_TAPCELL_ROW_11_90
*653 TAP_TAPCELL_ROW_12_91
*654 TAP_TAPCELL_ROW_12_92
*655 TAP_TAPCELL_ROW_12_93
*656 TAP_TAPCELL_ROW_12_94
*657 TAP_TAPCELL_ROW_13_95
*658 TAP_TAPCELL_ROW_13_96
*659 TAP_TAPCELL_ROW_13_97
*660 TAP_TAPCELL_ROW_14_100
*661 TAP_TAPCELL_ROW_14_101
*662 TAP_TAPCELL_ROW_14_98
*663 TAP_TAPCELL_ROW_14_99
*664 TAP_TAPCELL_ROW_15_102
*665 TAP_TAPCELL_ROW_15_103
*666 TAP_TAPCELL_ROW_15_104
*667 TAP_TAPCELL_ROW_16_105
*668 TAP_TAPCELL_ROW_16_106
*669 TAP_TAPCELL_ROW_16_107
*670 TAP_TAPCELL_ROW_16_108
*671 TAP_TAPCELL_ROW_17_109
*672 TAP_TAPCELL_ROW_17_110
*673 TAP_TAPCELL_ROW_17_111
*674 TAP_TAPCELL_ROW_18_112
*675 TAP_TAPCELL_ROW_18_113
*676 TAP_TAPCELL_ROW_18_114
*677 TAP_TAPCELL_ROW_18_115
*678 TAP_TAPCELL_ROW_19_116
*679 TAP_TAPCELL_ROW_19_117
*680 TAP_TAPCELL_ROW_19_118
*681 TAP_TAPCELL_ROW_1_53
*682 TAP_TAPCELL_ROW_1_54
*683 TAP_TAPCELL_ROW_1_55
*684 TAP_TAPCELL_ROW_20_119
*685 TAP_TAPCELL_ROW_20_120
*686 TAP_TAPCELL_ROW_20_121
*687 TAP_TAPCELL_ROW_20_122
*688 TAP_TAPCELL_ROW_21_123
*689 TAP_TAPCELL_ROW_21_124
*690 TAP_TAPCELL_ROW_21_125
*691 TAP_TAPCELL_ROW_22_126
*692 TAP_TAPCELL_ROW_22_127
*693 TAP_TAPCELL_ROW_22_128
*694 TAP_TAPCELL_ROW_22_129
*695 TAP_TAPCELL_ROW_22_130
*696 TAP_TAPCELL_ROW_22_131
*697 TAP_TAPCELL_ROW_22_132
*698 TAP_TAPCELL_ROW_2_56
*699 TAP_TAPCELL_ROW_2_57
*700 TAP_TAPCELL_ROW_2_58
*701 TAP_TAPCELL_ROW_2_59
*702 TAP_TAPCELL_ROW_3_60
*703 TAP_TAPCELL_ROW_3_61
*704 TAP_TAPCELL_ROW_3_62
*705 TAP_TAPCELL_ROW_4_63
*706 TAP_TAPCELL_ROW_4_64
*707 TAP_TAPCELL_ROW_4_65
*708 TAP_TAPCELL_ROW_4_66
*709 TAP_TAPCELL_ROW_5_67
*710 TAP_TAPCELL_ROW_5_68
*711 TAP_TAPCELL_ROW_5_69
*712 TAP_TAPCELL_ROW_6_70
*713 TAP_TAPCELL_ROW_6_71
*714 TAP_TAPCELL_ROW_6_72
*715 TAP_TAPCELL_ROW_6_73
*716 TAP_TAPCELL_ROW_7_74
*717 TAP_TAPCELL_ROW_7_75
*718 TAP_TAPCELL_ROW_7_76
*719 TAP_TAPCELL_ROW_8_77
*720 TAP_TAPCELL_ROW_8_78
*721 TAP_TAPCELL_ROW_8_79
*722 TAP_TAPCELL_ROW_8_80
*723 TAP_TAPCELL_ROW_9_81
*724 TAP_TAPCELL_ROW_9_82
*725 TAP_TAPCELL_ROW_9_83
*726 _113_
*727 _114_
*728 _115_
*729 _116_
*730 _117_
*731 _118_
*732 _119_
*733 _120_
*734 _121_
*735 _122_
*736 _123_
*737 _124_
*738 _125_
*739 _126_
*740 _127_
*741 _128_
*742 _129_
*743 _130_
*744 _131_
*745 _132_
*746 _133_
*747 _134_
*748 _135_
*749 _136_
*750 _137_
*751 _138_
*752 _139_
*753 _140_
*754 _141_
*755 _142_
*756 _143_
*757 _144_
*758 _145_
*759 _146_
*760 _147_
*761 _148_
*762 _149_
*763 _150_
*764 _151_
*765 _152_
*766 _153_
*767 _154_
*768 _155_
*769 _156_
*770 _157_
*771 _158_
*772 _159_
*773 _160_
*774 _161_
*775 _162_
*776 _163_
*777 _164_
*778 _165_
*779 _166_
*780 _167_
*781 _168_
*782 _169_
*783 _170_
*784 _171_
*785 _172_
*786 _173_
*787 _174_
*788 _175_
*789 _176_
*790 _177_
*791 _178_
*792 _179_
*793 _180_
*794 _181_
*795 _182_
*796 _183_
*797 _184_
*798 _185_
*799 _186_
*800 _187_
*801 _188_
*802 _189_
*803 _190_
*804 _191_
*805 _192_
*806 _193_
*807 _194_
*808 _195_
*809 _196_
*810 _197_
*811 _198_
*812 _199_
*813 _200_
*814 _201_
*815 _202_
*816 _203_
*817 _204_
*818 _205_
*819 _206_
*820 _207_
*821 _208_
*822 _209_
*823 _210_
*824 _211_
*825 _212_
*826 _213_
*827 _214_
*828 _215_
*829 _216_
*830 _217_
*831 _218_
*832 _219_
*833 _220_
*834 _221_
*835 _222_
*836 _222__46
*837 _223_
*838 _223__45
*839 _224_
*840 _224__44
*841 _225_
*842 _225__43
*843 _226_
*844 _226__42
*845 _227_
*846 _227__41
*847 _228_
*848 _229_
*849 _230_
*850 _231_
*851 _232_
*852 _233_
*853 _234_
*854 _235_
*855 _236_
*856 _237_
*857 _237__40
*858 _238_
*859 _238__39
*860 _239_
*861 _239__38
*862 _240_
*863 _240__37
*864 _241_
*865 _242_
*866 _243_
*867 _244_
*868 _245_
*869 _246_
*870 _247_
*871 _281_
*872 clkbuf_0_clk
*873 clkbuf_1_0__f_clk
*874 clkbuf_1_1__f_clk
*875 clkload0
*876 fanout12
*877 fanout13
*878 fanout14
*879 fanout15
*880 fanout16
*881 input1
*882 input10
*883 input11
*884 input2
*885 input3
*886 input4
*887 input5
*888 input6
*889 input7
*890 input8
*891 input9
*892 tt_um_felixfeierabend_17
*893 tt_um_felixfeierabend_18
*894 tt_um_felixfeierabend_19
*895 tt_um_felixfeierabend_20
*896 tt_um_felixfeierabend_21
*897 tt_um_felixfeierabend_22
*898 tt_um_felixfeierabend_23
*899 tt_um_felixfeierabend_24
*900 tt_um_felixfeierabend_25
*901 tt_um_felixfeierabend_26
*902 tt_um_felixfeierabend_27
*903 tt_um_felixfeierabend_28
*904 tt_um_felixfeierabend_29
*905 tt_um_felixfeierabend_30
*906 tt_um_felixfeierabend_31
*907 tt_um_felixfeierabend_32
*908 tt_um_felixfeierabend_33
*909 tt_um_felixfeierabend_34
*910 tt_um_felixfeierabend_35
*911 tt_um_felixfeierabend_36
*912 tt_um_felixfeierabend_47
*913 tt_um_felixfeierabend_48
*914 tt_um_felixfeierabend_49

*PORTS
clk I
ena I
rst_n I
ui_in[0] I
ui_in[1] I
ui_in[2] I
ui_in[3] I
ui_in[4] I
ui_in[5] I
ui_in[6] I
ui_in[7] I
uio_in[0] I
uio_in[1] I
uio_in[2] I
uio_in[3] I
uio_in[4] I
uio_in[5] I
uio_in[6] I
uio_in[7] I
uio_oe[0] O
uio_oe[1] O
uio_oe[2] O
uio_oe[3] O
uio_oe[4] O
uio_oe[5] O
uio_oe[6] O
uio_oe[7] O
uio_out[0] O
uio_out[1] O
uio_out[2] O
uio_out[3] O
uio_out[4] O
uio_out[5] O
uio_out[6] O
uio_out[7] O
uo_out[0] O
uo_out[1] O
uo_out[2] O
uo_out[3] O
uo_out[4] O
uo_out[5] O
uo_out[6] O
uo_out[7] O

*D_NET *3 0.00420424
*CONN
*P clk I
*I *872:I I *D gf180mcu_fd_sc_mcu7t5v0__clkbuf_16
*CAP
1 clk 0.00149095
2 *872:I 0.00149095
3 *872:I *762:A1 1.97747e-05
4 *872:I *763:A1 8.80948e-05
5 *872:I *764:A4 0
6 *872:I *765:B 0.000303192
7 *872:I *835:RN 3.95707e-05
8 *872:I *835:CLK 4.7234e-05
9 *872:I *843:D 7.59985e-05
10 *872:I *843:RN 0.000230381
11 *872:I *874:I 0
12 *872:I *157:12 0.000162409
13 *872:I *164:20 0
14 *872:I *164:24 0.000255692
*RES
1 clk *872:I 20.514 
*END

*D_NET *4 0.000564832
*CONN
*P ena I
*I *881:I I *D gf180mcu_fd_sc_mcu7t5v0__clkbuf_1
*CAP
1 ena 0.000282416
2 *881:I 0.000282416
3 *881:I *837:D 0
*RES
1 ena *881:I 10.634 
*END

*D_NET *5 0.000521479
*CONN
*P rst_n I
*I *884:I I *D gf180mcu_fd_sc_mcu7t5v0__clkbuf_2
*CAP
1 rst_n 0.000260739
2 *884:I 0.000260739
*RES
1 rst_n *884:I 10.482 
*END

*D_NET *6 0.000669397
*CONN
*P ui_in[0] I
*I *885:I I *D gf180mcu_fd_sc_mcu7t5v0__clkbuf_1
*CAP
1 ui_in[0] 0.000257496
2 *885:I 0.000257496
3 *885:I uio_oe[3] 1.15676e-05
4 *885:I uo_out[0] 0.000114019
5 *885:I *736:I 2.88187e-05
*RES
1 ui_in[0] *885:I 6.59 
*END

*D_NET *9 0.000794535
*CONN
*P ui_in[3] I
*I *886:I I *D gf180mcu_fd_sc_mcu7t5v0__clkbuf_1
*CAP
1 ui_in[3] 0.000285204
2 *886:I 0.000285204
3 *886:I *806:A1 1.28529e-05
4 *886:I *888:I 3.21323e-05
5 *886:I *889:I 0.000179141
*RES
1 ui_in[3] *886:I 6.97 
*END

*D_NET *10 0.000672004
*CONN
*P ui_in[4] I
*I *887:I I *D gf180mcu_fd_sc_mcu7t5v0__clkbuf_1
*CAP
1 ui_in[4] 0.000287034
2 *887:I 0.000287034
3 *887:I uo_out[3] 5.28916e-05
4 *887:I *186:8 4.50449e-05
*RES
1 ui_in[4] *887:I 6.59 
*END

*D_NET *11 0.000565241
*CONN
*P ui_in[5] I
*I *888:I I *D gf180mcu_fd_sc_mcu7t5v0__clkbuf_1
*CAP
1 ui_in[5] 0.000251109
2 *888:I 0.000251109
3 *888:I *806:A1 3.08902e-05
4 *886:I *888:I 3.21323e-05
*RES
1 ui_in[5] *888:I 6.21 
*END

*D_NET *12 0.00070144
*CONN
*P ui_in[6] I
*I *889:I I *D gf180mcu_fd_sc_mcu7t5v0__clkbuf_1
*CAP
1 ui_in[6] 0.000239845
2 *889:I 0.000239845
3 *889:I uio_oe[0] 4.26093e-05
4 *886:I *889:I 0.000179141
*RES
1 ui_in[6] *889:I 6.59 
*END

*D_NET *13 0.000937295
*CONN
*P ui_in[7] I
*I *890:I I *D gf180mcu_fd_sc_mcu7t5v0__clkbuf_1
*CAP
1 ui_in[7] 0.000467688
2 *890:I 0.000467688
3 *890:I *814:I1 1.91917e-06
*RES
1 ui_in[7] *890:I 15.894 
*END

*D_NET *14 0.00080664
*CONN
*P uio_in[0] I
*I *891:I I *D gf180mcu_fd_sc_mcu7t5v0__clkbuf_1
*CAP
1 uio_in[0] 0.000312551
2 *891:I 0.000312551
3 *891:I *883:I 2.95891e-05
4 *891:I *190:10 0.000151949
*RES
1 uio_in[0] *891:I 15.438 
*END

*D_NET *15 0.000468522
*CONN
*P uio_in[1] I
*I *882:I I *D gf180mcu_fd_sc_mcu7t5v0__clkbuf_2
*CAP
1 uio_in[1] 0.000190785
2 *882:I 0.000190785
3 *882:I uio_oe[6] 4.46112e-05
4 *882:I uio_out[3] 1.15676e-05
5 *882:I *805:A2 3.07734e-05
*RES
1 uio_in[1] *882:I 5.982 
*END

*D_NET *16 0.000512292
*CONN
*P uio_in[2] I
*I *883:I I *D gf180mcu_fd_sc_mcu7t5v0__clkbuf_1
*CAP
1 uio_in[2] 0.000227795
2 *883:I 0.000227795
3 *883:I uio_out[3] 2.51933e-05
4 *883:I *805:A4 0
5 *883:I *167:6 1.91917e-06
6 *891:I *883:I 2.95891e-05
*RES
1 uio_in[2] *883:I 5.982 
*END

*D_NET *22 0.000570398
*CONN
*P uio_oe[0] O
*I *912:Z O *D gf180mcu_fd_sc_mcu7t5v0__tieh
*CAP
1 uio_oe[0] 0.00024259
2 *912:Z 0.00024259
3 uio_oe[0] uo_out[1] 4.26093e-05
4 *889:I uio_oe[0] 4.26093e-05
*RES
1 *912:Z uio_oe[0] 6.286 
*END

*D_NET *23 0.000846978
*CONN
*P uio_oe[1] O
*I *913:Z O *D gf180mcu_fd_sc_mcu7t5v0__tieh
*CAP
1 uio_oe[1] 0.000344649
2 *913:Z 0.000344649
3 uio_oe[1] uio_out[2] 0.000130689
4 uio_oe[1] uo_out[7] 2.69911e-05
5 uio_oe[1] *812:A1 0
*RES
1 *913:Z uio_oe[1] 15.818 
*END

*D_NET *24 0.000567513
*CONN
*P uio_oe[2] O
*I *914:Z O *D gf180mcu_fd_sc_mcu7t5v0__tieh
*CAP
1 uio_oe[2] 0.000262452
2 *914:Z 0.000262452
3 uio_oe[2] uio_oe[4] 4.26093e-05
*RES
1 *914:Z uio_oe[2] 6.286 
*END

*D_NET *25 0.00113518
*CONN
*P uio_oe[3] O
*I *892:ZN O *D gf180mcu_fd_sc_mcu7t5v0__tiel
*CAP
1 uio_oe[3] 0.000540318
2 *892:ZN 0.000540318
3 uio_oe[3] uio_oe[6] 2.44479e-05
4 uio_oe[3] *803:A4 1.85312e-05
5 uio_oe[3] *81:12 0
6 *885:I uio_oe[3] 1.15676e-05
*RES
1 *892:ZN uio_oe[3] 16.654 
*END

*D_NET *26 0.000702817
*CONN
*P uio_oe[4] O
*I *893:ZN O *D gf180mcu_fd_sc_mcu7t5v0__tiel
*CAP
1 uio_oe[4] 0.000301087
2 *893:ZN 0.000301087
3 uio_oe[4] uio_out[0] 5.80328e-05
4 uio_oe[2] uio_oe[4] 4.26093e-05
*RES
1 *893:ZN uio_oe[4] 6.742 
*END

*D_NET *27 0.00031269
*CONN
*P uio_oe[5] O
*I *894:ZN O *D gf180mcu_fd_sc_mcu7t5v0__tiel
*CAP
1 uio_oe[5] 0.000136006
2 *894:ZN 0.000136006
3 uio_oe[5] uio_out[7] 4.06786e-05
*RES
1 *894:ZN uio_oe[5] 10.102 
*END

*D_NET *28 0.00177831
*CONN
*P uio_oe[6] O
*I *895:ZN O *D gf180mcu_fd_sc_mcu7t5v0__tiel
*CAP
1 uio_oe[6] 0.000440651
2 *895:ZN 0.000440651
3 uio_oe[6] *803:A4 0.00011571
4 uio_oe[6] *190:10 0.000712243
5 uio_oe[3] uio_oe[6] 2.44479e-05
6 *882:I uio_oe[6] 4.46112e-05
*RES
1 *895:ZN uio_oe[6] 17.414 
*END

*D_NET *29 0.000725096
*CONN
*P uio_oe[7] O
*I *896:ZN O *D gf180mcu_fd_sc_mcu7t5v0__tiel
*CAP
1 uio_oe[7] 0.000260573
2 *896:ZN 0.000260573
3 uio_oe[7] uio_out[0] 5.80328e-05
4 uio_oe[7] uio_out[2] 0.000145917
*RES
1 *896:ZN uio_oe[7] 6.742 
*END

*D_NET *30 0.000704023
*CONN
*P uio_out[0] O
*I *897:ZN O *D gf180mcu_fd_sc_mcu7t5v0__tiel
*CAP
1 uio_out[0] 0.000293979
2 *897:ZN 0.000293979
3 uio_oe[4] uio_out[0] 5.80328e-05
4 uio_oe[7] uio_out[0] 5.80328e-05
*RES
1 *897:ZN uio_out[0] 6.742 
*END

*D_NET *31 0.000446073
*CONN
*P uio_out[1] O
*I *898:ZN O *D gf180mcu_fd_sc_mcu7t5v0__tiel
*CAP
1 uio_out[1] 0.00019722
2 *898:ZN 0.00019722
3 uio_out[1] uio_out[4] 2.71858e-05
4 uio_out[1] uo_out[0] 2.44479e-05
*RES
1 *898:ZN uio_out[1] 5.83 
*END

*D_NET *32 0.000838364
*CONN
*P uio_out[2] O
*I *899:ZN O *D gf180mcu_fd_sc_mcu7t5v0__tiel
*CAP
1 uio_out[2] 0.000280879
2 *899:ZN 0.000280879
3 uio_oe[1] uio_out[2] 0.000130689
4 uio_oe[7] uio_out[2] 0.000145917
*RES
1 *899:ZN uio_out[2] 6.97 
*END

*D_NET *33 0.00159153
*CONN
*P uio_out[3] O
*I *900:ZN O *D gf180mcu_fd_sc_mcu7t5v0__tiel
*CAP
1 uio_out[3] 0.000440156
2 *900:ZN 0.000440156
3 uio_out[3] *803:A3 2.30549e-05
4 uio_out[3] *805:A2 1.53696e-05
5 uio_out[3] *805:A4 0.000502843
6 uio_out[3] *134:6 5.48085e-05
7 uio_out[3] *167:6 7.83779e-05
8 *882:I uio_out[3] 1.15676e-05
9 *883:I uio_out[3] 2.51933e-05
*RES
1 *900:ZN uio_out[3] 7.958 
*END

*D_NET *34 0.000435093
*CONN
*P uio_out[4] O
*I *901:ZN O *D gf180mcu_fd_sc_mcu7t5v0__tiel
*CAP
1 uio_out[4] 0.000203954
2 *901:ZN 0.000203954
3 uio_out[1] uio_out[4] 2.71858e-05
*RES
1 *901:ZN uio_out[4] 5.83 
*END

*D_NET *35 0.000674341
*CONN
*P uio_out[5] O
*I *902:ZN O *D gf180mcu_fd_sc_mcu7t5v0__tiel
*CAP
1 uio_out[5] 0.000337171
2 *902:ZN 0.000337171
*RES
1 *902:ZN uio_out[5] 11.09 
*END

*D_NET *36 0.000433414
*CONN
*P uio_out[6] O
*I *903:ZN O *D gf180mcu_fd_sc_mcu7t5v0__tiel
*CAP
1 uio_out[6] 0.000216707
2 *903:ZN 0.000216707
*RES
1 *903:ZN uio_out[6] 5.83 
*END

*D_NET *37 0.000451688
*CONN
*P uio_out[7] O
*I *904:ZN O *D gf180mcu_fd_sc_mcu7t5v0__tiel
*CAP
1 uio_out[7] 0.000205505
2 *904:ZN 0.000205505
3 uio_oe[5] uio_out[7] 4.06786e-05
*RES
1 *904:ZN uio_out[7] 10.482 
*END

*D_NET *38 0.000880582
*CONN
*P uo_out[0] O
*I *871:Z O *D gf180mcu_fd_sc_mcu7t5v0__clkbuf_3
*CAP
1 uo_out[0] 0.000371058
2 *871:Z 0.000371058
3 uo_out[0] *60:8 0
4 uio_out[1] uo_out[0] 2.44479e-05
5 *885:I uo_out[0] 0.000114019
*RES
1 *871:Z uo_out[0] 7.046 
*END

*D_NET *39 0.000702817
*CONN
*P uo_out[1] O
*I *905:ZN O *D gf180mcu_fd_sc_mcu7t5v0__tiel
*CAP
1 uo_out[1] 0.000301087
2 *905:ZN 0.000301087
3 uo_out[1] uo_out[7] 5.80328e-05
4 uio_oe[0] uo_out[1] 4.26093e-05
*RES
1 *905:ZN uo_out[1] 6.742 
*END

*D_NET *40 0.000674341
*CONN
*P uo_out[2] O
*I *906:ZN O *D gf180mcu_fd_sc_mcu7t5v0__tiel
*CAP
1 uo_out[2] 0.000337171
2 *906:ZN 0.000337171
*RES
1 *906:ZN uo_out[2] 11.09 
*END

*D_NET *41 0.00069953
*CONN
*P uo_out[3] O
*I *907:ZN O *D gf180mcu_fd_sc_mcu7t5v0__tiel
*CAP
1 uo_out[3] 0.000323319
2 *907:ZN 0.000323319
3 *887:I uo_out[3] 5.28916e-05
*RES
1 *907:ZN uo_out[3] 6.742 
*END

*D_NET *42 0.000448683
*CONN
*P uo_out[4] O
*I *908:ZN O *D gf180mcu_fd_sc_mcu7t5v0__tiel
*CAP
1 uo_out[4] 0.000224341
2 *908:ZN 0.000224341
*RES
1 *908:ZN uo_out[4] 10.482 
*END

*D_NET *43 0.000477152
*CONN
*P uo_out[5] O
*I *909:ZN O *D gf180mcu_fd_sc_mcu7t5v0__tiel
*CAP
1 uo_out[5] 0.000238576
2 *909:ZN 0.000238576
*RES
1 *909:ZN uo_out[5] 5.982 
*END

*D_NET *44 0.000695841
*CONN
*P uo_out[6] O
*I *910:ZN O *D gf180mcu_fd_sc_mcu7t5v0__tiel
*CAP
1 uo_out[6] 0.000347921
2 *910:ZN 0.000347921
*RES
1 *910:ZN uo_out[6] 6.742 
*END

*D_NET *45 0.000702042
*CONN
*P uo_out[7] O
*I *911:ZN O *D gf180mcu_fd_sc_mcu7t5v0__tiel
*CAP
1 uo_out[7] 0.000308509
2 *911:ZN 0.000308509
3 uio_oe[1] uo_out[7] 2.69911e-05
4 uo_out[1] uo_out[7] 5.80328e-05
*RES
1 *911:ZN uo_out[7] 6.742 
*END

*D_NET *46 0.000690223
*CONN
*I *829:D I *D gf180mcu_fd_sc_mcu7t5v0__dffrnq_1
*I *768:ZN O *D gf180mcu_fd_sc_mcu7t5v0__nor2_1
*CAP
1 *829:D 0.000232297
2 *768:ZN 0.000232297
3 *829:D *768:A1 0.00016335
4 *829:D *830:RN 3.42838e-05
5 *829:D *153:12 2.79958e-05
*RES
1 *768:ZN *829:D 19.52 
*END

*D_NET *47 0.00139118
*CONN
*I *830:D I *D gf180mcu_fd_sc_mcu7t5v0__dffrnq_1
*I *770:ZN O *D gf180mcu_fd_sc_mcu7t5v0__nor2_1
*CAP
1 *830:D 0.000606719
2 *770:ZN 0.000606719
3 *830:D *830:CLK 9.22125e-05
4 *830:D *163:27 8.55327e-05
*RES
1 *770:ZN *830:D 13.028 
*END

*D_NET *48 0.000525391
*CONN
*I *831:D I *D gf180mcu_fd_sc_mcu7t5v0__dffrnq_1
*I *773:ZN O *D gf180mcu_fd_sc_mcu7t5v0__nor3_1
*CAP
1 *831:D 2.55855e-05
2 *773:ZN 2.55855e-05
3 *831:D *773:A1 0.000149579
4 *831:D *826:I 0.00032464
*RES
1 *773:ZN *831:D 9.836 
*END

*D_NET *49 0.00107055
*CONN
*I *832:D I *D gf180mcu_fd_sc_mcu7t5v0__dffrnq_1
*I *776:ZN O *D gf180mcu_fd_sc_mcu7t5v0__nor3_1
*CAP
1 *832:D 0.000155287
2 *776:ZN 0.000155287
3 *832:D *765:C 0
4 *832:D *767:A2 7.98764e-05
5 *832:D *773:A1 0.000284188
6 *832:D *776:A2 0.000166035
7 *832:D *111:8 0.000229879
*RES
1 *776:ZN *832:D 20.508 
*END

*D_NET *50 0.000763194
*CONN
*I *833:D I *D gf180mcu_fd_sc_mcu7t5v0__dffrnq_1
*I *778:ZN O *D gf180mcu_fd_sc_mcu7t5v0__nor2_1
*CAP
1 *833:D 0.000111162
2 *778:ZN 0.000111162
3 *833:D *834:CLK 0.000509981
4 *833:D *163:27 3.08902e-05
*RES
1 *778:ZN *833:D 10.292 
*END

*D_NET *51 0.000309403
*CONN
*I *834:D I *D gf180mcu_fd_sc_mcu7t5v0__dffrnq_1
*I *780:ZN O *D gf180mcu_fd_sc_mcu7t5v0__nor2_1
*CAP
1 *834:D 0.000106782
2 *780:ZN 0.000106782
3 *834:D *780:A2 9.58397e-05
4 *834:D *834:CLK 0
*RES
1 *780:ZN *834:D 9.836 
*END

*D_NET *52 0.00294103
*CONN
*I *848:D I *D gf180mcu_fd_sc_mcu7t5v0__dffrnq_1
*I *782:ZN O *D gf180mcu_fd_sc_mcu7t5v0__nor2_1
*CAP
1 *848:D 0.000397581
2 *782:ZN 0.000397581
3 *848:D *169:27 0.00214587
4 *848:D *171:16 0
*RES
1 *782:ZN *848:D 23.244 
*END

*D_NET *53 0.000644727
*CONN
*I *849:D I *D gf180mcu_fd_sc_mcu7t5v0__dffrnq_1
*I *784:ZN O *D gf180mcu_fd_sc_mcu7t5v0__nor2_1
*CAP
1 *849:D 0.000211998
2 *784:ZN 0.000211998
3 *849:D *738:A1 1.76898e-05
4 *849:D *784:A2 9.61205e-06
5 *849:D *119:78 0.000106097
6 *849:D *145:19 0
7 *849:D *201:14 8.7332e-05
*RES
1 *784:ZN *849:D 10.824 
*END

*D_NET *54 0.00136797
*CONN
*I *850:D I *D gf180mcu_fd_sc_mcu7t5v0__dffrnq_1
*I *787:ZN O *D gf180mcu_fd_sc_mcu7t5v0__nor3_1
*CAP
1 *850:D 0.000237988
2 *787:ZN 0.000237988
3 *850:D *727:I 0
4 *850:D *787:A2 0.000193933
5 *850:D *787:A3 0.000526519
6 *850:D *852:CLK 0.000133351
7 *850:D *123:8 3.81953e-05
*RES
1 *787:ZN *850:D 11.508 
*END

*D_NET *55 0.000702348
*CONN
*I *851:D I *D gf180mcu_fd_sc_mcu7t5v0__dffrnq_1
*I *790:ZN O *D gf180mcu_fd_sc_mcu7t5v0__nor3_1
*CAP
1 *851:D 0.000162539
2 *790:ZN 0.000162539
3 *851:D *787:A1 2.9378e-06
4 *851:D *790:A3 0
5 *851:D *851:CLK 4.58601e-06
6 *851:D *852:CLK 0
7 *851:D *169:89 0.000369746
*RES
1 *790:ZN *851:D 10.368 
*END

*D_NET *56 0.000489614
*CONN
*I *852:D I *D gf180mcu_fd_sc_mcu7t5v0__dffrnq_1
*I *793:ZN O *D gf180mcu_fd_sc_mcu7t5v0__nor3_1
*CAP
1 *852:D 4.86123e-05
2 *793:ZN 4.86123e-05
3 *852:D *119:36 0.00032464
4 *852:D *169:89 6.77492e-05
*RES
1 *793:ZN *852:D 9.836 
*END

*D_NET *57 0.000774753
*CONN
*I *853:D I *D gf180mcu_fd_sc_mcu7t5v0__dffrnq_1
*I *796:ZN O *D gf180mcu_fd_sc_mcu7t5v0__nor3_1
*CAP
1 *853:D 0.000217676
2 *796:ZN 0.000217676
3 *853:D *799:A1 0.0001908
4 *853:D *169:78 3.37025e-05
5 *853:D *169:89 7.24161e-06
6 *853:D *205:8 0.000107657
7 *853:D *206:10 0
*RES
1 *796:ZN *853:D 19.976 
*END

*D_NET *58 0.00127143
*CONN
*I *854:D I *D gf180mcu_fd_sc_mcu7t5v0__dffrnq_1
*I *799:ZN O *D gf180mcu_fd_sc_mcu7t5v0__nor2_1
*CAP
1 *854:D 0.000305645
2 *799:ZN 0.000305645
3 *854:D *798:A2 0
4 *854:D *172:18 0.000660137
*RES
1 *799:ZN *854:D 20.584 
*END

*D_NET *59 0.00135246
*CONN
*I *855:D I *D gf180mcu_fd_sc_mcu7t5v0__dffrnq_1
*I *801:ZN O *D gf180mcu_fd_sc_mcu7t5v0__nor2_1
*CAP
1 *855:D 0.000248318
2 *801:ZN 0.000248318
3 *855:D *801:A1 0.000317494
4 *855:D *169:61 0.000538328
5 *855:D *197:18 0
*RES
1 *801:ZN *855:D 20.28 
*END

*D_NET *60 0.00113175
*CONN
*I *847:RN I *D gf180mcu_fd_sc_mcu7t5v0__dffrnq_1