* NGSPICE file created from tiny_tonegen.ext - technology: gf180mcuD

* Black-box entry subcircuit for gf180mcu_fd_sc_mcu7t5v0__fill_1 abstract view
.subckt gf180mcu_fd_sc_mcu7t5v0__fill_1 VDD VNW VPW VSS
.ends

* Black-box entry subcircuit for gf180mcu_fd_sc_mcu7t5v0__fill_2 abstract view
.subckt gf180mcu_fd_sc_mcu7t5v0__fill_2 VDD VNW VPW VSS
.ends

* Black-box entry subcircuit for gf180mcu_fd_sc_mcu7t5v0__filltie abstract view
.subckt gf180mcu_fd_sc_mcu7t5v0__filltie VDD VSS
.ends

* Black-box entry subcircuit for gf180mcu_fd_sc_mcu7t5v0__nand2_1 abstract view
.subckt gf180mcu_fd_sc_mcu7t5v0__nand2_1 A1 A2 ZN VDD VNW VPW VSS
.ends

* Black-box entry subcircuit for gf180mcu_fd_sc_mcu7t5v0__fillcap_4 abstract view
.subckt gf180mcu_fd_sc_mcu7t5v0__fillcap_4 VDD VNW VPW VSS
.ends

* Black-box entry subcircuit for gf180mcu_fd_sc_mcu7t5v0__oai21_1 abstract view
.subckt gf180mcu_fd_sc_mcu7t5v0__oai21_1 A1 A2 B ZN VDD VNW VPW VSS
.ends

* Black-box entry subcircuit for gf180mcu_fd_sc_mcu7t5v0__fillcap_16 abstract view
.subckt gf180mcu_fd_sc_mcu7t5v0__fillcap_16 VDD VNW VPW VSS
.ends

* Black-box entry subcircuit for gf180mcu_fd_sc_mcu7t5v0__nor2_2 abstract view
.subckt gf180mcu_fd_sc_mcu7t5v0__nor2_2 A1 A2 ZN VDD VNW VPW VSS
.ends

* Black-box entry subcircuit for gf180mcu_fd_sc_mcu7t5v0__clkinv_1 abstract view
.subckt gf180mcu_fd_sc_mcu7t5v0__clkinv_1 I ZN VDD VNW VPW VSS
.ends

* Black-box entry subcircuit for gf180mcu_fd_sc_mcu7t5v0__dffq_1 abstract view
.subckt gf180mcu_fd_sc_mcu7t5v0__dffq_1 D CLK Q VDD VNW VPW VSS
.ends

* Black-box entry subcircuit for gf180mcu_fd_sc_mcu7t5v0__mux2_2 abstract view
.subckt gf180mcu_fd_sc_mcu7t5v0__mux2_2 I0 I1 S Z VDD VNW VPW VSS
.ends

* Black-box entry subcircuit for gf180mcu_fd_sc_mcu7t5v0__dffq_2 abstract view
.subckt gf180mcu_fd_sc_mcu7t5v0__dffq_2 D CLK Q VDD VNW VPW VSS
.ends

* Black-box entry subcircuit for gf180mcu_fd_sc_mcu7t5v0__dffrnq_1 abstract view
.subckt gf180mcu_fd_sc_mcu7t5v0__dffrnq_1 D RN CLK Q VDD VNW VPW VSS
.ends

* Black-box entry subcircuit for gf180mcu_fd_sc_mcu7t5v0__fillcap_32 abstract view
.subckt gf180mcu_fd_sc_mcu7t5v0__fillcap_32 VDD VNW VPW VSS
.ends

* Black-box entry subcircuit for gf180mcu_fd_sc_mcu7t5v0__nor3_1 abstract view
.subckt gf180mcu_fd_sc_mcu7t5v0__nor3_1 A1 A2 A3 ZN VDD VNW VPW VSS
.ends

* Black-box entry subcircuit for gf180mcu_fd_sc_mcu7t5v0__aoi21_1 abstract view
.subckt gf180mcu_fd_sc_mcu7t5v0__aoi21_1 A1 A2 B ZN VDD VNW VPW VSS
.ends

* Black-box entry subcircuit for gf180mcu_fd_sc_mcu7t5v0__nor2_1 abstract view
.subckt gf180mcu_fd_sc_mcu7t5v0__nor2_1 A1 A2 ZN VDD VNW VPW VSS
.ends

* Black-box entry subcircuit for gf180mcu_fd_sc_mcu7t5v0__and2_1 abstract view
.subckt gf180mcu_fd_sc_mcu7t5v0__and2_1 A1 A2 Z VDD VNW VPW VSS
.ends

* Black-box entry subcircuit for gf180mcu_fd_sc_mcu7t5v0__fillcap_8 abstract view
.subckt gf180mcu_fd_sc_mcu7t5v0__fillcap_8 VDD VNW VPW VSS
.ends

* Black-box entry subcircuit for gf180mcu_fd_sc_mcu7t5v0__endcap abstract view
.subckt gf180mcu_fd_sc_mcu7t5v0__endcap VDD VSS
.ends

* Black-box entry subcircuit for gf180mcu_fd_sc_mcu7t5v0__fillcap_64 abstract view
.subckt gf180mcu_fd_sc_mcu7t5v0__fillcap_64 VDD VNW VPW VSS
.ends

* Black-box entry subcircuit for gf180mcu_fd_sc_mcu7t5v0__xor2_1 abstract view
.subckt gf180mcu_fd_sc_mcu7t5v0__xor2_1 A1 A2 Z VDD VNW VPW VSS
.ends

* Black-box entry subcircuit for gf180mcu_fd_sc_mcu7t5v0__oai31_1 abstract view
.subckt gf180mcu_fd_sc_mcu7t5v0__oai31_1 A1 A2 A3 B ZN VDD VNW VPW VSS
.ends

* Black-box entry subcircuit for gf180mcu_fd_sc_mcu7t5v0__and3_1 abstract view
.subckt gf180mcu_fd_sc_mcu7t5v0__and3_1 A1 A2 A3 Z VDD VNW VPW VSS
.ends

* Black-box entry subcircuit for gf180mcu_fd_sc_mcu7t5v0__oai211_1 abstract view
.subckt gf180mcu_fd_sc_mcu7t5v0__oai211_1 A1 A2 B C ZN VDD VNW VPW VSS
.ends

* Black-box entry subcircuit for gf180mcu_fd_sc_mcu7t5v0__oai221_1 abstract view
.subckt gf180mcu_fd_sc_mcu7t5v0__oai221_1 A1 A2 B1 B2 C ZN VDD VNW VPW VSS
.ends

* Black-box entry subcircuit for gf180mcu_fd_sc_mcu7t5v0__dffsnq_1 abstract view
.subckt gf180mcu_fd_sc_mcu7t5v0__dffsnq_1 D SETN CLK Q VDD VNW VPW VSS
.ends

* Black-box entry subcircuit for gf180mcu_fd_sc_mcu7t5v0__nand3_1 abstract view
.subckt gf180mcu_fd_sc_mcu7t5v0__nand3_1 A1 A2 A3 ZN VDD VNW VPW VSS
.ends

* Black-box entry subcircuit for gf180mcu_fd_sc_mcu7t5v0__inv_1 abstract view
.subckt gf180mcu_fd_sc_mcu7t5v0__inv_1 I ZN VDD VNW VPW VSS
.ends

* Black-box entry subcircuit for gf180mcu_fd_sc_mcu7t5v0__inv_2 abstract view
.subckt gf180mcu_fd_sc_mcu7t5v0__inv_2 I ZN VDD VNW VPW VSS
.ends

* Black-box entry subcircuit for gf180mcu_fd_sc_mcu7t5v0__nor3_2 abstract view
.subckt gf180mcu_fd_sc_mcu7t5v0__nor3_2 A1 A2 A3 ZN VDD VNW VPW VSS
.ends

* Black-box entry subcircuit for gf180mcu_fd_sc_mcu7t5v0__xor3_1 abstract view
.subckt gf180mcu_fd_sc_mcu7t5v0__xor3_1 A1 A2 A3 Z VDD VNW VPW VSS
.ends

* Black-box entry subcircuit for gf180mcu_fd_sc_mcu7t5v0__or2_1 abstract view
.subckt gf180mcu_fd_sc_mcu7t5v0__or2_1 A1 A2 Z VDD VNW VPW VSS
.ends

* Black-box entry subcircuit for gf180mcu_fd_sc_mcu7t5v0__xnor2_1 abstract view
.subckt gf180mcu_fd_sc_mcu7t5v0__xnor2_1 A1 A2 ZN VDD VNW VPW VSS
.ends

* Black-box entry subcircuit for gf180mcu_fd_sc_mcu7t5v0__oai22_1 abstract view
.subckt gf180mcu_fd_sc_mcu7t5v0__oai22_1 A1 A2 B1 B2 ZN VDD VNW VPW VSS
.ends

* Black-box entry subcircuit for gf180mcu_fd_sc_mcu7t5v0__oai32_1 abstract view
.subckt gf180mcu_fd_sc_mcu7t5v0__oai32_1 A1 A2 A3 B1 B2 ZN VDD VNW VPW VSS
.ends

* Black-box entry subcircuit for gf180mcu_fd_sc_mcu7t5v0__clkbuf_16 abstract view
.subckt gf180mcu_fd_sc_mcu7t5v0__clkbuf_16 I Z VDD VNW VPW VSS
.ends

* Black-box entry subcircuit for gf180mcu_fd_sc_mcu7t5v0__and2_2 abstract view
.subckt gf180mcu_fd_sc_mcu7t5v0__and2_2 A1 A2 Z VDD VNW VPW VSS
.ends

* Black-box entry subcircuit for gf180mcu_fd_sc_mcu7t5v0__buf_2 abstract view
.subckt gf180mcu_fd_sc_mcu7t5v0__buf_2 I Z VDD VNW VPW VSS
.ends

* Black-box entry subcircuit for gf180mcu_fd_sc_mcu7t5v0__clkbuf_1 abstract view
.subckt gf180mcu_fd_sc_mcu7t5v0__clkbuf_1 I Z VDD VNW VPW VSS
.ends

* Black-box entry subcircuit for gf180mcu_fd_sc_mcu7t5v0__clkbuf_3 abstract view
.subckt gf180mcu_fd_sc_mcu7t5v0__clkbuf_3 I Z VDD VNW VPW VSS
.ends

* Black-box entry subcircuit for gf180mcu_fd_sc_mcu7t5v0__buf_1 abstract view
.subckt gf180mcu_fd_sc_mcu7t5v0__buf_1 I Z VDD VNW VPW VSS
.ends

* Black-box entry subcircuit for gf180mcu_fd_sc_mcu7t5v0__clkbuf_4 abstract view
.subckt gf180mcu_fd_sc_mcu7t5v0__clkbuf_4 I Z VDD VNW VPW VSS
.ends

* Black-box entry subcircuit for gf180mcu_fd_sc_mcu7t5v0__or4_1 abstract view
.subckt gf180mcu_fd_sc_mcu7t5v0__or4_1 A1 A2 A3 A4 Z VDD VNW VPW VSS
.ends

* Black-box entry subcircuit for gf180mcu_fd_sc_mcu7t5v0__nand3_4 abstract view
.subckt gf180mcu_fd_sc_mcu7t5v0__nand3_4 A1 A2 A3 ZN VDD VNW VPW VSS
.ends

* Black-box entry subcircuit for gf180mcu_fd_sc_mcu7t5v0__and4_1 abstract view
.subckt gf180mcu_fd_sc_mcu7t5v0__and4_1 A1 A2 A3 A4 Z VDD VNW VPW VSS
.ends

* Black-box entry subcircuit for gf180mcu_fd_sc_mcu7t5v0__or3_1 abstract view
.subckt gf180mcu_fd_sc_mcu7t5v0__or3_1 A1 A2 A3 Z VDD VNW VPW VSS
.ends

* Black-box entry subcircuit for gf180mcu_fd_sc_mcu7t5v0__nand2_2 abstract view
.subckt gf180mcu_fd_sc_mcu7t5v0__nand2_2 A1 A2 ZN VDD VNW VPW VSS
.ends

* Black-box entry subcircuit for gf180mcu_fd_sc_mcu7t5v0__aoi22_1 abstract view
.subckt gf180mcu_fd_sc_mcu7t5v0__aoi22_1 A1 A2 B1 B2 ZN VDD VNW VPW VSS
.ends

* Black-box entry subcircuit for gf180mcu_fd_sc_mcu7t5v0__nand4_1 abstract view
.subckt gf180mcu_fd_sc_mcu7t5v0__nand4_1 A1 A2 A3 A4 ZN VDD VNW VPW VSS
.ends

* Black-box entry subcircuit for gf180mcu_fd_sc_mcu7t5v0__nand3_2 abstract view
.subckt gf180mcu_fd_sc_mcu7t5v0__nand3_2 A1 A2 A3 ZN VDD VNW VPW VSS
.ends

* Black-box entry subcircuit for gf180mcu_fd_sc_mcu7t5v0__buf_4 abstract view
.subckt gf180mcu_fd_sc_mcu7t5v0__buf_4 I Z VDD VNW VPW VSS
.ends

* Black-box entry subcircuit for gf180mcu_fd_sc_mcu7t5v0__clkbuf_2 abstract view
.subckt gf180mcu_fd_sc_mcu7t5v0__clkbuf_2 I Z VDD VNW VPW VSS
.ends

* Black-box entry subcircuit for gf180mcu_fd_sc_mcu7t5v0__aoi221_1 abstract view
.subckt gf180mcu_fd_sc_mcu7t5v0__aoi221_1 A1 A2 B1 B2 C ZN VDD VNW VPW VSS
.ends

* Black-box entry subcircuit for gf180mcu_fd_sc_mcu7t5v0__tiel abstract view
.subckt gf180mcu_fd_sc_mcu7t5v0__tiel ZN VDD VNW VPW VSS
.ends

* Black-box entry subcircuit for gf180mcu_fd_sc_mcu7t5v0__aoi211_1 abstract view
.subckt gf180mcu_fd_sc_mcu7t5v0__aoi211_1 A1 A2 B C ZN VDD VNW VPW VSS
.ends

* Black-box entry subcircuit for gf180mcu_fd_sc_mcu7t5v0__nand2_4 abstract view
.subckt gf180mcu_fd_sc_mcu7t5v0__nand2_4 A1 A2 ZN VDD VNW VPW VSS
.ends

* Black-box entry subcircuit for gf180mcu_fd_sc_mcu7t5v0__aoi211_2 abstract view
.subckt gf180mcu_fd_sc_mcu7t5v0__aoi211_2 A1 A2 B C ZN VDD VNW VPW VSS
.ends

* Black-box entry subcircuit for gf180mcu_fd_sc_mcu7t5v0__nor3_4 abstract view
.subckt gf180mcu_fd_sc_mcu7t5v0__nor3_4 A1 A2 A3 ZN VDD VNW VPW VSS
.ends

.subckt tiny_tonegen VDD VSS address_in[0] address_in[1] address_in[2] clk data_in[0]
+ data_in[1] data_in[2] data_in[3] data_in[4] ena rst_n signal_bit_out write_strobe_in
XFILLER_22_111 VDD VDD VSS VSS gf180mcu_fd_sc_mcu7t5v0__fill_1
XFILLER_10_317 VDD VDD VSS VSS gf180mcu_fd_sc_mcu7t5v0__fill_2
XTAP_TAPCELL_ROW_9_115 VDD VSS gf180mcu_fd_sc_mcu7t5v0__filltie
X_363_ _667_/Q _360_/Z _366_/A2 VDD VDD VSS VSS gf180mcu_fd_sc_mcu7t5v0__nand2_1
XTAP_TAPCELL_ROW_15_139 VDD VSS gf180mcu_fd_sc_mcu7t5v0__filltie
XFILLER_13_199 VDD VDD VSS VSS gf180mcu_fd_sc_mcu7t5v0__fillcap_4
X_432_ input5/Z _437_/A2 _437_/C _433_/B VDD VDD VSS VSS gf180mcu_fd_sc_mcu7t5v0__oai21_1
XFILLER_5_321 VDD VDD VSS VSS gf180mcu_fd_sc_mcu7t5v0__fillcap_16
X_501_ _655_/Q _672_/Q _537_/B2 VDD VDD VSS VSS gf180mcu_fd_sc_mcu7t5v0__nand2_1
XFILLER_8_170 VDD VDD VSS VSS gf180mcu_fd_sc_mcu7t5v0__fillcap_4
XTAP_TAPCELL_ROW_20_164 VDD VSS gf180mcu_fd_sc_mcu7t5v0__filltie
X_415_ input2/Z _342_/I _438_/A1 VDD VDD VSS VSS gf180mcu_fd_sc_mcu7t5v0__nor2_2
X_346_ _680_/Q _616_/B1 VDD VDD VSS VSS gf180mcu_fd_sc_mcu7t5v0__clkinv_1
XFILLER_23_86 VDD VDD VSS VSS gf180mcu_fd_sc_mcu7t5v0__fillcap_4
X_329_ _657_/Q _368_/C VDD VDD VSS VSS gf180mcu_fd_sc_mcu7t5v0__clkinv_1
XFILLER_9_44 VDD VDD VSS VSS gf180mcu_fd_sc_mcu7t5v0__fill_2
XFILLER_18_53 VDD VDD VSS VSS gf180mcu_fd_sc_mcu7t5v0__fillcap_4
X_680_ _680_/D _729_/CLK _680_/Q VDD VDD VSS VSS gf180mcu_fd_sc_mcu7t5v0__dffq_1
XFILLER_7_279 VDD VDD VSS VSS gf180mcu_fd_sc_mcu7t5v0__fill_1
XFILLER_6_290 VDD VDD VSS VSS gf180mcu_fd_sc_mcu7t5v0__fillcap_4
XFILLER_28_183 VDD VDD VSS VSS gf180mcu_fd_sc_mcu7t5v0__fill_1
X_594_ _700_/Q _699_/Q _607_/S _700_/D VDD VDD VSS VSS gf180mcu_fd_sc_mcu7t5v0__mux2_2
X_663_ _663_/D _690_/CLK _663_/Q VDD VDD VSS VSS gf180mcu_fd_sc_mcu7t5v0__dffq_2
XFILLER_3_282 VDD VDD VSS VSS gf180mcu_fd_sc_mcu7t5v0__fillcap_16
XFILLER_25_142 VDD VDD VSS VSS gf180mcu_fd_sc_mcu7t5v0__fill_1
X_715_ _715_/D _447_/B _719_/CLK _715_/Q VDD VDD VSS VSS gf180mcu_fd_sc_mcu7t5v0__dffrnq_1
XTAP_TAPCELL_ROW_26_192 VDD VSS gf180mcu_fd_sc_mcu7t5v0__filltie
X_646_ _646_/D _710_/CLK _646_/Q VDD VDD VSS VSS gf180mcu_fd_sc_mcu7t5v0__dffq_1
XFILLER_16_197 VDD VDD VSS VSS gf180mcu_fd_sc_mcu7t5v0__fillcap_4
X_577_ _577_/A1 _577_/A2 _577_/B _579_/A2 VDD VDD VSS VSS gf180mcu_fd_sc_mcu7t5v0__oai21_1
XFILLER_0_274 VDD VDD VSS VSS gf180mcu_fd_sc_mcu7t5v0__fillcap_32
X_362_ _367_/A1 _360_/Z _362_/A3 _666_/D VDD VDD VSS VSS gf180mcu_fd_sc_mcu7t5v0__nor3_1
X_431_ _431_/A1 _437_/A2 _431_/B _653_/D VDD VDD VSS VSS gf180mcu_fd_sc_mcu7t5v0__aoi21_1
X_500_ _687_/Q _569_/A2 _522_/B VDD VDD VSS VSS gf180mcu_fd_sc_mcu7t5v0__nand2_1
X_629_ _627_/Z _629_/A2 _726_/D VDD VDD VSS VSS gf180mcu_fd_sc_mcu7t5v0__nor2_1
XTAP_TAPCELL_ROW_20_165 VDD VSS gf180mcu_fd_sc_mcu7t5v0__filltie
XFILLER_12_33 VDD VDD VSS VSS gf180mcu_fd_sc_mcu7t5v0__fill_2
XFILLER_10_137 VDD VDD VSS VSS gf180mcu_fd_sc_mcu7t5v0__fill_2
XFILLER_32_240 VDD VDD VSS VSS gf180mcu_fd_sc_mcu7t5v0__fillcap_32
X_414_ input9/Z _413_/Z _648_/D VDD VDD VSS VSS gf180mcu_fd_sc_mcu7t5v0__and2_1
XTAP_TAPCELL_ROW_11_121 VDD VSS gf180mcu_fd_sc_mcu7t5v0__filltie
XFILLER_5_130 VDD VDD VSS VSS gf180mcu_fd_sc_mcu7t5v0__fillcap_8
X_345_ _681_/Q _617_/A1 VDD VDD VSS VSS gf180mcu_fd_sc_mcu7t5v0__clkinv_1
XFILLER_23_54 VDD VDD VSS VSS gf180mcu_fd_sc_mcu7t5v0__fill_2
XPHY_EDGE_ROW_21_Right_21 VDD VSS gf180mcu_fd_sc_mcu7t5v0__endcap
XPHY_EDGE_ROW_12_Right_12 VDD VSS gf180mcu_fd_sc_mcu7t5v0__endcap
XPHY_EDGE_ROW_30_Right_30 VDD VSS gf180mcu_fd_sc_mcu7t5v0__endcap
XFILLER_23_76 VDD VDD VSS VSS gf180mcu_fd_sc_mcu7t5v0__fill_2
X_328_ _658_/Q _442_/A1 VDD VDD VSS VSS gf180mcu_fd_sc_mcu7t5v0__clkinv_1
XFILLER_2_177 VDD VDD VSS VSS gf180mcu_fd_sc_mcu7t5v0__fillcap_64
XFILLER_0_36 VDD VDD VSS VSS gf180mcu_fd_sc_mcu7t5v0__fillcap_32
XFILLER_3_2 VDD VDD VSS VSS gf180mcu_fd_sc_mcu7t5v0__fillcap_16
XFILLER_9_56 VDD VDD VSS VSS gf180mcu_fd_sc_mcu7t5v0__fill_2
XFILLER_20_265 VDD VDD VSS VSS gf180mcu_fd_sc_mcu7t5v0__fillcap_4
XFILLER_28_321 VDD VDD VSS VSS gf180mcu_fd_sc_mcu7t5v0__fillcap_4
XFILLER_18_65 VDD VDD VSS VSS gf180mcu_fd_sc_mcu7t5v0__fill_1
XFILLER_18_10 VDD VDD VSS VSS gf180mcu_fd_sc_mcu7t5v0__fill_2
XFILLER_11_265 VDD VDD VSS VSS gf180mcu_fd_sc_mcu7t5v0__fillcap_8
X_731_ _731_/D _731_/CLK _731_/Q VDD VDD VSS VSS gf180mcu_fd_sc_mcu7t5v0__dffq_2
X_662_ _662_/D _690_/CLK _662_/Q VDD VDD VSS VSS gf180mcu_fd_sc_mcu7t5v0__dffq_2
X_593_ _699_/Q _713_/Q _607_/S _699_/D VDD VDD VSS VSS gf180mcu_fd_sc_mcu7t5v0__mux2_2
XFILLER_16_313 VDD VDD VSS VSS gf180mcu_fd_sc_mcu7t5v0__fill_2
XPHY_EDGE_ROW_16_Left_49 VDD VSS gf180mcu_fd_sc_mcu7t5v0__endcap
XFILLER_1_209 VDD VDD VSS VSS gf180mcu_fd_sc_mcu7t5v0__fill_1
XPHY_EDGE_ROW_6_Right_6 VDD VSS gf180mcu_fd_sc_mcu7t5v0__endcap
X_645_ _645_/D _710_/CLK _645_/Q VDD VDD VSS VSS gf180mcu_fd_sc_mcu7t5v0__dffq_1
XFILLER_15_88 VDD VDD VSS VSS gf180mcu_fd_sc_mcu7t5v0__fillcap_8
X_576_ _690_/Q _645_/Q _576_/Z VDD VDD VSS VSS gf180mcu_fd_sc_mcu7t5v0__xor2_1
X_714_ _714_/D _729_/CLK signal_bit_out VDD VDD VSS VSS gf180mcu_fd_sc_mcu7t5v0__dffq_2
XFILLER_22_102 VDD VDD VSS VSS gf180mcu_fd_sc_mcu7t5v0__fill_2
XFILLER_8_342 VDD VDD VSS VSS gf180mcu_fd_sc_mcu7t5v0__fill_1
X_361_ _664_/Q _665_/Q _666_/Q _362_/A3 VDD VDD VSS VSS gf180mcu_fd_sc_mcu7t5v0__aoi21_1
XFILLER_13_113 VDD VDD VSS VSS gf180mcu_fd_sc_mcu7t5v0__fill_1
X_430_ input4/Z _437_/A2 _437_/C _431_/B VDD VDD VSS VSS gf180mcu_fd_sc_mcu7t5v0__oai21_1
XFILLER_9_117 VDD VDD VSS VSS gf180mcu_fd_sc_mcu7t5v0__fillcap_4
XFILLER_9_139 VDD VDD VSS VSS gf180mcu_fd_sc_mcu7t5v0__fill_1
X_628_ _726_/Q _625_/Z _634_/B _629_/A2 VDD VDD VSS VSS gf180mcu_fd_sc_mcu7t5v0__oai21_1
X_559_ _548_/B _560_/A2 _559_/A3 _559_/B _690_/D VDD VDD VSS VSS gf180mcu_fd_sc_mcu7t5v0__oai31_1
XFILLER_8_194 VDD VDD VSS VSS gf180mcu_fd_sc_mcu7t5v0__fillcap_4
XFILLER_27_227 VDD VDD VSS VSS gf180mcu_fd_sc_mcu7t5v0__fill_2
XPHY_EDGE_ROW_19_Left_52 VDD VSS gf180mcu_fd_sc_mcu7t5v0__endcap
XFILLER_12_45 VDD VDD VSS VSS gf180mcu_fd_sc_mcu7t5v0__fillcap_16
XTAP_TAPCELL_ROW_28_200 VDD VSS gf180mcu_fd_sc_mcu7t5v0__filltie
X_413_ _413_/A1 _355_/I _413_/Z VDD VDD VSS VSS gf180mcu_fd_sc_mcu7t5v0__xor2_1
XTAP_TAPCELL_ROW_11_122 VDD VSS gf180mcu_fd_sc_mcu7t5v0__filltie
XFILLER_5_142 VDD VDD VSS VSS gf180mcu_fd_sc_mcu7t5v0__fillcap_64
X_344_ _730_/Q _619_/A2 VDD VDD VSS VSS gf180mcu_fd_sc_mcu7t5v0__clkinv_1
XFILLER_32_274 VDD VDD VSS VSS gf180mcu_fd_sc_mcu7t5v0__fillcap_32
XFILLER_17_282 VDD VDD VSS VSS gf180mcu_fd_sc_mcu7t5v0__fillcap_16
XFILLER_23_274 VDD VDD VSS VSS gf180mcu_fd_sc_mcu7t5v0__fill_1
XFILLER_23_44 VDD VDD VSS VSS gf180mcu_fd_sc_mcu7t5v0__fillcap_4
XFILLER_23_22 VDD VDD VSS VSS gf180mcu_fd_sc_mcu7t5v0__fill_1
XPHY_EDGE_ROW_4_Left_37 VDD VSS gf180mcu_fd_sc_mcu7t5v0__endcap
X_327_ _327_/I _425_/A1 VDD VDD VSS VSS gf180mcu_fd_sc_mcu7t5v0__clkinv_1
XFILLER_9_46 VDD VDD VSS VSS gf180mcu_fd_sc_mcu7t5v0__fill_1
XFILLER_28_333 VDD VDD VSS VSS gf180mcu_fd_sc_mcu7t5v0__fillcap_8
XFILLER_18_99 VDD VDD VSS VSS gf180mcu_fd_sc_mcu7t5v0__fillcap_4
XFILLER_11_277 VDD VDD VSS VSS gf180mcu_fd_sc_mcu7t5v0__fill_2
XFILLER_7_204 VDD VDD VSS VSS gf180mcu_fd_sc_mcu7t5v0__fillcap_4
XFILLER_25_336 VDD VDD VSS VSS gf180mcu_fd_sc_mcu7t5v0__fill_1
XFILLER_20_45 VDD VDD VSS VSS gf180mcu_fd_sc_mcu7t5v0__fillcap_4
XFILLER_20_12 VDD VDD VSS VSS gf180mcu_fd_sc_mcu7t5v0__fill_1
XFILLER_31_306 VDD VDD VSS VSS gf180mcu_fd_sc_mcu7t5v0__fill_1
X_661_ _661_/D _719_/CLK _661_/Q VDD VDD VSS VSS gf180mcu_fd_sc_mcu7t5v0__dffq_1
XFILLER_16_325 VDD VDD VSS VSS gf180mcu_fd_sc_mcu7t5v0__fillcap_16
X_592_ _592_/I _697_/D VDD VDD VSS VSS gf180mcu_fd_sc_mcu7t5v0__clkinv_1
XPHY_EDGE_ROW_7_Left_40 VDD VSS gf180mcu_fd_sc_mcu7t5v0__endcap
X_730_ _730_/D _730_/CLK _730_/Q VDD VDD VSS VSS gf180mcu_fd_sc_mcu7t5v0__dffq_1
XFILLER_19_130 VDD VDD VSS VSS gf180mcu_fd_sc_mcu7t5v0__fillcap_8
XFILLER_31_66 VDD VDD VSS VSS gf180mcu_fd_sc_mcu7t5v0__fillcap_4
XFILLER_25_111 VDD VDD VSS VSS gf180mcu_fd_sc_mcu7t5v0__fill_1
XFILLER_25_100 VDD VDD VSS VSS gf180mcu_fd_sc_mcu7t5v0__fill_2
X_713_ _713_/D _413_/A1 _713_/Q VDD VDD VSS VSS gf180mcu_fd_sc_mcu7t5v0__dffq_1
X_644_ _644_/D _731_/CLK _644_/Q VDD VDD VSS VSS gf180mcu_fd_sc_mcu7t5v0__dffq_1
X_575_ _575_/I _587_/A1 VDD VDD VSS VSS gf180mcu_fd_sc_mcu7t5v0__clkinv_1
XFILLER_31_136 VDD VDD VSS VSS gf180mcu_fd_sc_mcu7t5v0__fillcap_4
XTAP_TAPCELL_ROW_17_150 VDD VSS gf180mcu_fd_sc_mcu7t5v0__filltie
XFILLER_16_177 VDD VDD VSS VSS gf180mcu_fd_sc_mcu7t5v0__fillcap_4
X_360_ _666_/Q _664_/Q _665_/Q _360_/Z VDD VDD VSS VSS gf180mcu_fd_sc_mcu7t5v0__and3_1
XTAP_TAPCELL_ROW_23_175 VDD VSS gf180mcu_fd_sc_mcu7t5v0__filltie
X_489_ _694_/Q _397_/Z _679_/D VDD VDD VSS VSS gf180mcu_fd_sc_mcu7t5v0__and2_1
X_558_ _558_/I _559_/A3 VDD VDD VSS VSS gf180mcu_fd_sc_mcu7t5v0__clkinv_1
X_627_ _726_/Q _625_/Z _627_/Z VDD VDD VSS VSS gf180mcu_fd_sc_mcu7t5v0__and2_1
XFILLER_10_139 VDD VDD VSS VSS gf180mcu_fd_sc_mcu7t5v0__fill_1
XFILLER_10_117 VDD VDD VSS VSS gf180mcu_fd_sc_mcu7t5v0__fillcap_4
XTAP_TAPCELL_ROW_28_201 VDD VSS gf180mcu_fd_sc_mcu7t5v0__filltie
X_412_ _597_/A1 _641_/A2 _412_/B _412_/C _647_/D VDD VDD VSS VSS gf180mcu_fd_sc_mcu7t5v0__oai211_1
XFILLER_18_239 VDD VDD VSS VSS gf180mcu_fd_sc_mcu7t5v0__fillcap_4
X_343_ _343_/I _428_/A2 VDD VDD VSS VSS gf180mcu_fd_sc_mcu7t5v0__clkinv_1
XTAP_TAPCELL_ROW_11_123 VDD VSS gf180mcu_fd_sc_mcu7t5v0__filltie
XPHY_EDGE_ROW_20_Left_53 VDD VSS gf180mcu_fd_sc_mcu7t5v0__endcap
XFILLER_23_220 VDD VDD VSS VSS gf180mcu_fd_sc_mcu7t5v0__fillcap_4
XFILLER_23_67 VDD VDD VSS VSS gf180mcu_fd_sc_mcu7t5v0__fill_2
XFILLER_2_168 VDD VDD VSS VSS gf180mcu_fd_sc_mcu7t5v0__fillcap_4
XFILLER_2_124 VDD VDD VSS VSS gf180mcu_fd_sc_mcu7t5v0__fillcap_4
X_326_ _659_/Q _444_/A1 VDD VDD VSS VSS gf180mcu_fd_sc_mcu7t5v0__clkinv_1
XFILLER_14_242 VDD VDD VSS VSS gf180mcu_fd_sc_mcu7t5v0__fill_2
XTAP_TAPCELL_ROW_0_70 VDD VSS gf180mcu_fd_sc_mcu7t5v0__filltie
XFILLER_18_34 VDD VDD VSS VSS gf180mcu_fd_sc_mcu7t5v0__fill_1
XFILLER_11_212 VDD VDD VSS VSS gf180mcu_fd_sc_mcu7t5v0__fillcap_4
XFILLER_6_282 VDD VDD VSS VSS gf180mcu_fd_sc_mcu7t5v0__fillcap_8
X_660_ _660_/D _719_/CLK _660_/Q VDD VDD VSS VSS gf180mcu_fd_sc_mcu7t5v0__dffq_1
X_591_ _697_/Q _698_/Q _584_/Z _591_/B2 _634_/B _592_/I VDD VDD VSS VSS gf180mcu_fd_sc_mcu7t5v0__oai221_1
XFILLER_19_197 VDD VDD VSS VSS gf180mcu_fd_sc_mcu7t5v0__fillcap_8
XFILLER_19_164 VDD VDD VSS VSS gf180mcu_fd_sc_mcu7t5v0__fill_2
X_712_ _712_/D _637_/B _413_/A1 _712_/Q VDD VDD VSS VSS gf180mcu_fd_sc_mcu7t5v0__dffsnq_1
XFILLER_15_68 VDD VDD VSS VSS gf180mcu_fd_sc_mcu7t5v0__fill_2
XFILLER_16_189 VDD VDD VSS VSS gf180mcu_fd_sc_mcu7t5v0__fillcap_8
XFILLER_16_156 VDD VDD VSS VSS gf180mcu_fd_sc_mcu7t5v0__fill_2
X_643_ _643_/D _731_/CLK _643_/Q VDD VDD VSS VSS gf180mcu_fd_sc_mcu7t5v0__dffq_1
X_574_ _690_/Q _645_/Q _575_/I VDD VDD VSS VSS gf180mcu_fd_sc_mcu7t5v0__nand2_1
XFILLER_12_340 VDD VDD VSS VSS gf180mcu_fd_sc_mcu7t5v0__fill_2
XFILLER_22_137 VDD VDD VSS VSS gf180mcu_fd_sc_mcu7t5v0__fillcap_4
XFILLER_22_104 VDD VDD VSS VSS gf180mcu_fd_sc_mcu7t5v0__fill_1
XTAP_TAPCELL_ROW_17_151 VDD VSS gf180mcu_fd_sc_mcu7t5v0__filltie
XTAP_TAPCELL_ROW_23_176 VDD VSS gf180mcu_fd_sc_mcu7t5v0__filltie
XFILLER_21_192 VDD VDD VSS VSS gf180mcu_fd_sc_mcu7t5v0__fillcap_16
X_626_ _640_/A1 _626_/A2 _625_/Z _725_/D VDD VDD VSS VSS gf180mcu_fd_sc_mcu7t5v0__nor3_1
X_557_ _557_/A1 _557_/A2 _556_/B _558_/I VDD VDD VSS VSS gf180mcu_fd_sc_mcu7t5v0__nand3_1
X_488_ _693_/Q _397_/Z _678_/D VDD VDD VSS VSS gf180mcu_fd_sc_mcu7t5v0__and2_1
XFILLER_8_174 VDD VDD VSS VSS gf180mcu_fd_sc_mcu7t5v0__fill_1
X_411_ input4/Z _641_/A2 _412_/B VDD VDD VSS VSS gf180mcu_fd_sc_mcu7t5v0__nand2_1
X_342_ _342_/I _429_/A2 VDD VDD VSS VSS gf180mcu_fd_sc_mcu7t5v0__inv_1
XTAP_TAPCELL_ROW_11_124 VDD VSS gf180mcu_fd_sc_mcu7t5v0__filltie
XFILLER_2_317 VDD VDD VSS VSS gf180mcu_fd_sc_mcu7t5v0__fillcap_16
X_609_ _703_/Q _712_/Q _609_/Z VDD VDD VSS VSS gf180mcu_fd_sc_mcu7t5v0__xor2_1
XFILLER_2_103 VDD VDD VSS VSS gf180mcu_fd_sc_mcu7t5v0__fill_2
X_325_ _325_/I _446_/A1 VDD VDD VSS VSS gf180mcu_fd_sc_mcu7t5v0__clkinv_1
XFILLER_14_276 VDD VDD VSS VSS gf180mcu_fd_sc_mcu7t5v0__fillcap_16
XTAP_TAPCELL_ROW_0_71 VDD VSS gf180mcu_fd_sc_mcu7t5v0__filltie
Xclkload0 _667_/CLK clkload0/ZN VDD VDD VSS VSS gf180mcu_fd_sc_mcu7t5v0__inv_2
XFILLER_19_302 VDD VDD VSS VSS gf180mcu_fd_sc_mcu7t5v0__fill_1
XFILLER_11_279 VDD VDD VSS VSS gf180mcu_fd_sc_mcu7t5v0__fill_1
XFILLER_1_2 VDD VDD VSS VSS gf180mcu_fd_sc_mcu7t5v0__fillcap_32
XFILLER_6_294 VDD VDD VSS VSS gf180mcu_fd_sc_mcu7t5v0__fill_1
X_590_ _698_/Q _590_/A2 _591_/B2 VDD VDD VSS VSS gf180mcu_fd_sc_mcu7t5v0__nand2_1
XFILLER_30_341 VDD VDD VSS VSS gf180mcu_fd_sc_mcu7t5v0__fill_2
XFILLER_20_8 VDD VDD VSS VSS gf180mcu_fd_sc_mcu7t5v0__fillcap_4
XFILLER_19_187 VDD VDD VSS VSS gf180mcu_fd_sc_mcu7t5v0__fillcap_4
XFILLER_19_121 VDD VDD VSS VSS gf180mcu_fd_sc_mcu7t5v0__fillcap_4
XFILLER_25_179 VDD VDD VSS VSS gf180mcu_fd_sc_mcu7t5v0__fillcap_8
XFILLER_25_135 VDD VDD VSS VSS gf180mcu_fd_sc_mcu7t5v0__fillcap_4
XFILLER_25_102 VDD VDD VSS VSS gf180mcu_fd_sc_mcu7t5v0__fill_1
XPHY_EDGE_ROW_28_Right_28 VDD VSS gf180mcu_fd_sc_mcu7t5v0__endcap
X_711_ _711_/D _637_/B _413_/A1 _711_/Q VDD VDD VSS VSS gf180mcu_fd_sc_mcu7t5v0__dffrnq_1
X_642_ input5/Z _731_/Q _642_/S _731_/D VDD VDD VSS VSS gf180mcu_fd_sc_mcu7t5v0__mux2_2
XPHY_EDGE_ROW_19_Right_19 VDD VSS gf180mcu_fd_sc_mcu7t5v0__endcap
X_573_ _573_/A1 _572_/Z _573_/B _694_/D VDD VDD VSS VSS gf180mcu_fd_sc_mcu7t5v0__oai21_1
XFILLER_30_171 VDD VDD VSS VSS gf180mcu_fd_sc_mcu7t5v0__fillcap_4
XFILLER_29_282 VDD VDD VSS VSS gf180mcu_fd_sc_mcu7t5v0__fillcap_8
XTAP_TAPCELL_ROW_23_177 VDD VSS gf180mcu_fd_sc_mcu7t5v0__filltie
X_625_ _723_/Q _725_/Q _724_/Q _625_/Z VDD VDD VSS VSS gf180mcu_fd_sc_mcu7t5v0__and3_1
XFILLER_5_337 VDD VDD VSS VSS gf180mcu_fd_sc_mcu7t5v0__fillcap_4
X_556_ _557_/A1 _557_/A2 _556_/B _560_/A2 VDD VDD VSS VSS gf180mcu_fd_sc_mcu7t5v0__aoi21_1
X_487_ _692_/Q _397_/Z _677_/D VDD VDD VSS VSS gf180mcu_fd_sc_mcu7t5v0__and2_1
XFILLER_8_186 VDD VDD VSS VSS gf180mcu_fd_sc_mcu7t5v0__fillcap_8
XFILLER_26_241 VDD VDD VSS VSS gf180mcu_fd_sc_mcu7t5v0__fillcap_4
X_410_ input2/Z _429_/A2 _416_/A3 _641_/A2 VDD VDD VSS VSS gf180mcu_fd_sc_mcu7t5v0__nor3_2
X_341_ _634_/B _640_/A1 VDD VDD VSS VSS gf180mcu_fd_sc_mcu7t5v0__inv_1
X_608_ _607_/S _698_/D _611_/A1 VDD VDD VSS VSS gf180mcu_fd_sc_mcu7t5v0__nand2_1
XFILLER_17_274 VDD VDD VSS VSS gf180mcu_fd_sc_mcu7t5v0__fillcap_4
X_539_ _656_/Q _675_/Q _553_/B VDD VDD VSS VSS gf180mcu_fd_sc_mcu7t5v0__nand2_1
XFILLER_23_69 VDD VDD VSS VSS gf180mcu_fd_sc_mcu7t5v0__fill_1
X_324_ _660_/Q _371_/B2 VDD VDD VSS VSS gf180mcu_fd_sc_mcu7t5v0__clkinv_1
XFILLER_14_244 VDD VDD VSS VSS gf180mcu_fd_sc_mcu7t5v0__fill_1
XFILLER_14_222 VDD VDD VSS VSS gf180mcu_fd_sc_mcu7t5v0__fillcap_16
XFILLER_20_269 VDD VDD VSS VSS gf180mcu_fd_sc_mcu7t5v0__fill_2
XFILLER_20_247 VDD VDD VSS VSS gf180mcu_fd_sc_mcu7t5v0__fill_2
XTAP_TAPCELL_ROW_0_72 VDD VSS gf180mcu_fd_sc_mcu7t5v0__filltie
XFILLER_27_2 VDD VDD VSS VSS gf180mcu_fd_sc_mcu7t5v0__fillcap_8
XFILLER_1_72 VDD VDD VSS VSS gf180mcu_fd_sc_mcu7t5v0__fillcap_16
XFILLER_6_251 VDD VDD VSS VSS gf180mcu_fd_sc_mcu7t5v0__fill_2
XFILLER_29_68 VDD VDD VSS VSS gf180mcu_fd_sc_mcu7t5v0__fill_2
XFILLER_28_199 VDD VDD VSS VSS gf180mcu_fd_sc_mcu7t5v0__fill_1
XFILLER_28_177 VDD VDD VSS VSS gf180mcu_fd_sc_mcu7t5v0__fillcap_4
XFILLER_28_155 VDD VDD VSS VSS gf180mcu_fd_sc_mcu7t5v0__fillcap_4
XFILLER_20_37 VDD VDD VSS VSS gf180mcu_fd_sc_mcu7t5v0__fillcap_8
XFILLER_19_166 VDD VDD VSS VSS gf180mcu_fd_sc_mcu7t5v0__fill_1
XFILLER_13_8 VDD VDD VSS VSS gf180mcu_fd_sc_mcu7t5v0__fill_1
XFILLER_3_276 VDD VDD VSS VSS gf180mcu_fd_sc_mcu7t5v0__fillcap_4
XFILLER_3_298 VDD VDD VSS VSS gf180mcu_fd_sc_mcu7t5v0__fillcap_8
X_710_ _710_/D _698_/D _710_/CLK _710_/Q VDD VDD VSS VSS gf180mcu_fd_sc_mcu7t5v0__dffsnq_1
X_641_ _412_/C _641_/A2 _642_/S VDD VDD VSS VSS gf180mcu_fd_sc_mcu7t5v0__nand2_1
XFILLER_16_136 VDD VDD VSS VSS gf180mcu_fd_sc_mcu7t5v0__fillcap_16
X_572_ _689_/Q _644_/Q _577_/A1 _572_/Z VDD VDD VSS VSS gf180mcu_fd_sc_mcu7t5v0__xor3_1
XFILLER_12_342 VDD VDD VSS VSS gf180mcu_fd_sc_mcu7t5v0__fill_1
XFILLER_26_69 VDD VDD VSS VSS gf180mcu_fd_sc_mcu7t5v0__fill_2
XFILLER_26_47 VDD VDD VSS VSS gf180mcu_fd_sc_mcu7t5v0__fillcap_4
XTAP_TAPCELL_ROW_23_178 VDD VSS gf180mcu_fd_sc_mcu7t5v0__filltie
XFILLER_3_18 VDD VDD VSS VSS gf180mcu_fd_sc_mcu7t5v0__fillcap_4
XTAP_TAPCELL_ROW_8_110 VDD VSS gf180mcu_fd_sc_mcu7t5v0__filltie
XFILLER_29_250 VDD VDD VSS VSS gf180mcu_fd_sc_mcu7t5v0__fillcap_16
X_486_ _731_/Q _486_/A2 _676_/D VDD VDD VSS VSS gf180mcu_fd_sc_mcu7t5v0__and2_1
XFILLER_16_91 VDD VDD VSS VSS gf180mcu_fd_sc_mcu7t5v0__fill_2
X_624_ _723_/Q _724_/Q _725_/Q _626_/A2 VDD VDD VSS VSS gf180mcu_fd_sc_mcu7t5v0__aoi21_1
XTAP_TAPCELL_ROW_14_134 VDD VSS gf180mcu_fd_sc_mcu7t5v0__filltie
X_555_ _560_/A1 _554_/Z _556_/B VDD VDD VSS VSS gf180mcu_fd_sc_mcu7t5v0__or2_1
XFILLER_12_150 VDD VDD VSS VSS gf180mcu_fd_sc_mcu7t5v0__fill_1
X_607_ _712_/Q _711_/Q _607_/S _712_/D VDD VDD VSS VSS gf180mcu_fd_sc_mcu7t5v0__mux2_2
X_340_ _716_/Q _377_/A1 VDD VDD VSS VSS gf180mcu_fd_sc_mcu7t5v0__clkinv_1
X_538_ _656_/Q _336_/I _540_/A2 VDD VDD VSS VSS gf180mcu_fd_sc_mcu7t5v0__nand2_1
XFILLER_1_330 VDD VDD VSS VSS gf180mcu_fd_sc_mcu7t5v0__fillcap_8
XFILLER_5_113 VDD VDD VSS VSS gf180mcu_fd_sc_mcu7t5v0__fill_2
XFILLER_23_212 VDD VDD VSS VSS gf180mcu_fd_sc_mcu7t5v0__fillcap_8
XFILLER_23_48 VDD VDD VSS VSS gf180mcu_fd_sc_mcu7t5v0__fill_2
X_469_ _469_/A1 _469_/A2 _469_/A3 _469_/Z VDD VDD VSS VSS gf180mcu_fd_sc_mcu7t5v0__and3_1
X_323_ _661_/Q _448_/A1 VDD VDD VSS VSS gf180mcu_fd_sc_mcu7t5v0__clkinv_1
XTAP_TAPCELL_ROW_30_210 VDD VSS gf180mcu_fd_sc_mcu7t5v0__filltie
XPHY_EDGE_ROW_24_Left_57 VDD VSS gf180mcu_fd_sc_mcu7t5v0__endcap
XFILLER_20_237 VDD VDD VSS VSS gf180mcu_fd_sc_mcu7t5v0__fillcap_8
XTAP_TAPCELL_ROW_0_73 VDD VSS gf180mcu_fd_sc_mcu7t5v0__filltie
XFILLER_1_171 VDD VDD VSS VSS gf180mcu_fd_sc_mcu7t5v0__fillcap_32
XFILLER_9_282 VDD VDD VSS VSS gf180mcu_fd_sc_mcu7t5v0__fillcap_8
XFILLER_18_37 VDD VDD VSS VSS gf180mcu_fd_sc_mcu7t5v0__fillcap_16
XFILLER_7_208 VDD VDD VSS VSS gf180mcu_fd_sc_mcu7t5v0__fill_2
XFILLER_19_337 VDD VDD VSS VSS gf180mcu_fd_sc_mcu7t5v0__fillcap_4
XFILLER_29_36 VDD VDD VSS VSS gf180mcu_fd_sc_mcu7t5v0__fillcap_32
XFILLER_1_40 VDD VDD VSS VSS gf180mcu_fd_sc_mcu7t5v0__fill_1
XFILLER_19_156 VDD VDD VSS VSS gf180mcu_fd_sc_mcu7t5v0__fillcap_8
XFILLER_3_200 VDD VDD VSS VSS gf180mcu_fd_sc_mcu7t5v0__fillcap_8
XPHY_EDGE_ROW_27_Left_60 VDD VSS gf180mcu_fd_sc_mcu7t5v0__endcap
XPHY_EDGE_ROW_11_Left_44 VDD VSS gf180mcu_fd_sc_mcu7t5v0__endcap
X_571_ _689_/Q _644_/Q _577_/A2 VDD VDD VSS VSS gf180mcu_fd_sc_mcu7t5v0__nor2_1
XPHY_EDGE_ROW_1_Right_1 VDD VSS gf180mcu_fd_sc_mcu7t5v0__endcap
XFILLER_8_325 VDD VDD VSS VSS gf180mcu_fd_sc_mcu7t5v0__fill_1
X_640_ _640_/A1 _639_/Z _730_/D VDD VDD VSS VSS gf180mcu_fd_sc_mcu7t5v0__nor2_1
XFILLER_22_107 VDD VDD VSS VSS gf180mcu_fd_sc_mcu7t5v0__fillcap_4
XFILLER_7_72 VDD VDD VSS VSS gf180mcu_fd_sc_mcu7t5v0__fillcap_16
XFILLER_26_26 VDD VDD VSS VSS gf180mcu_fd_sc_mcu7t5v0__fill_1
XTAP_TAPCELL_ROW_8_111 VDD VSS gf180mcu_fd_sc_mcu7t5v0__filltie
X_485_ _676_/Q _485_/A2 _486_/A2 VDD VDD VSS VSS gf180mcu_fd_sc_mcu7t5v0__xnor2_1
X_623_ _723_/Q _724_/Q _623_/B _724_/D VDD VDD VSS VSS gf180mcu_fd_sc_mcu7t5v0__aoi21_1
XTAP_TAPCELL_ROW_14_135 VDD VSS gf180mcu_fd_sc_mcu7t5v0__filltie
X_554_ _553_/B _554_/A2 _554_/Z VDD VDD VSS VSS gf180mcu_fd_sc_mcu7t5v0__and2_1
XFILLER_12_162 VDD VDD VSS VSS gf180mcu_fd_sc_mcu7t5v0__fillcap_4
XFILLER_8_133 VDD VDD VSS VSS gf180mcu_fd_sc_mcu7t5v0__fillcap_8
XFILLER_17_221 VDD VDD VSS VSS gf180mcu_fd_sc_mcu7t5v0__fillcap_8
XFILLER_1_342 VDD VDD VSS VSS gf180mcu_fd_sc_mcu7t5v0__fill_1
X_606_ _711_/Q _710_/Q _606_/S _711_/D VDD VDD VSS VSS gf180mcu_fd_sc_mcu7t5v0__mux2_2
X_399_ _607_/S _700_/Q _595_/B VDD VDD VSS VSS gf180mcu_fd_sc_mcu7t5v0__nand2_1
XFILLER_17_298 VDD VDD VSS VSS gf180mcu_fd_sc_mcu7t5v0__fillcap_8
X_468_ _468_/A1 _468_/A2 _468_/B1 _484_/A1 _469_/A3 VDD VDD VSS VSS gf180mcu_fd_sc_mcu7t5v0__oai22_1
XFILLER_4_84 VDD VDD VSS VSS gf180mcu_fd_sc_mcu7t5v0__fillcap_4
X_537_ _537_/A1 _537_/A2 _537_/A3 _528_/B _537_/B2 _542_/A1 VDD VDD VSS VSS gf180mcu_fd_sc_mcu7t5v0__oai32_1
XFILLER_2_128 VDD VDD VSS VSS gf180mcu_fd_sc_mcu7t5v0__fill_2
XFILLER_20_249 VDD VDD VSS VSS gf180mcu_fd_sc_mcu7t5v0__fill_1
XFILLER_13_290 VDD VDD VSS VSS gf180mcu_fd_sc_mcu7t5v0__fillcap_4
XTAP_TAPCELL_ROW_0_74 VDD VSS gf180mcu_fd_sc_mcu7t5v0__filltie
XFILLER_11_216 VDD VDD VSS VSS gf180mcu_fd_sc_mcu7t5v0__fill_1
XFILLER_24_341 VDD VDD VSS VSS gf180mcu_fd_sc_mcu7t5v0__fill_2
XFILLER_3_212 VDD VDD VSS VSS gf180mcu_fd_sc_mcu7t5v0__fillcap_64
XFILLER_32_2 VDD VDD VSS VSS gf180mcu_fd_sc_mcu7t5v0__fillcap_32
XFILLER_30_333 VDD VDD VSS VSS gf180mcu_fd_sc_mcu7t5v0__fillcap_8
XFILLER_15_341 VDD VDD VSS VSS gf180mcu_fd_sc_mcu7t5v0__fill_2
X_570_ _689_/Q _644_/Q _577_/B VDD VDD VSS VSS gf180mcu_fd_sc_mcu7t5v0__nand2_1
XFILLER_15_39 VDD VDD VSS VSS gf180mcu_fd_sc_mcu7t5v0__fill_2