*SPEF "ieee 1481-1999"
*DESIGN "tt_um_felixfeierabend"
*DATE "18:18:19 Thursday November 27, 2025"
*VENDOR "The OpenROAD Project"
*PROGRAM "OpenROAD"
*VERSION "v2.0-16235-gedf00dff9"
*DESIGN_FLOW "NAME_SCOPE LOCAL" "PIN_CAP NONE"
*DIVIDER /
*DELIMITER :
*BUS_DELIMITER []
*T_UNIT 1 NS
*C_UNIT 1 PF
*R_UNIT 1 OHM
*L_UNIT 1 HENRY

*NAME_MAP
*3 clk
*4 ena
*5 rst_n
*6 ui_in[0]
*7 ui_in[1]
*8 ui_in[2]
*9 ui_in[3]
*10 ui_in[4]
*11 ui_in[5]
*12 ui_in[6]
*13 ui_in[7]
*14 uio_in[0]
*15 uio_in[1]
*16 uio_in[2]
*17 uio_in[3]
*18 uio_in[4]
*19 uio_in[5]
*20 uio_in[6]
*21 uio_in[7]
*22 net48
*23 net49
*24 net50
*25 net18
*26 net19
*27 net20
*28 net21
*29 net22
*30 net23
*31 net24
*32 net25
*33 net26
*34 net27
*35 net28
*36 net29
*37 net30
*38 uo_out[0]
*39 net31
*40 net32
*41 net33
*42 net34
*43 net35
*44 net36
*45 net37
*46 _000_
*47 _003_
*48 _004_
*49 _005_
*50 _006_
*51 _007_
*52 _012_
*53 _015_
*54 _016_
*55 _017_
*56 _018_
*57 _019_
*58 _020_
*59 _021_
*60 _024_
*61 _025_
*62 _026_
*63 _027_
*64 _028_
*65 _029_
*66 _030_
*67 _031_
*68 _032_
*69 _033_
*70 _034_
*71 _035_
*72 _036_
*73 _037_
*74 _038_
*75 _039_
*76 _040_
*77 _041_
*78 _042_
*79 _043_
*80 _044_
*81 _045_
*82 _046_
*83 _047_
*84 _048_
*85 _049_
*86 _050_
*87 _051_
*88 _052_
*89 _053_
*90 _054_
*91 _055_
*92 _056_
*93 _057_
*94 _058_
*95 _059_
*96 _060_
*97 _061_
*98 _062_
*99 _063_
*100 _064_
*101 _065_
*102 _066_
*103 _067_
*104 _068_
*105 _069_
*106 _070_
*107 _071_
*108 _072_
*109 _073_
*110 _074_
*111 _075_
*112 _076_
*113 _077_
*114 _078_
*115 _079_
*116 _080_
*117 _081_
*118 _082_
*119 _083_
*120 _084_
*121 _085_
*122 _086_
*123 _087_
*124 _088_
*125 clk_scaled
*126 clk_scaler\.counter\[0\]
*127 clk_scaler\.counter\[10\]
*128 clk_scaler\.counter\[11\]
*129 clk_scaler\.counter\[1\]
*130 clk_scaler\.counter\[2\]
*131 clk_scaler\.counter\[3\]
*132 clk_scaler\.counter\[4\]
*133 clk_scaler\.counter\[5\]
*134 clk_scaler\.counter\[6\]
*135 clk_scaler\.counter\[7\]
*136 clk_scaler\.counter\[8\]
*137 clk_scaler\.counter\[9\]
*138 clknet_0_clk
*139 clknet_1_0__leaf_clk
*140 clknet_1_1__leaf_clk
*141 net1
*142 net10
*143 net11
*144 net12
*145 net13
*146 net14
*147 net15
*148 net16
*149 net17
*150 net2
*151 net3
*152 net38
*153 net39
*154 net4
*155 net40
*156 net41
*157 net42
*158 net43
*159 net44
*160 net45
*161 net46
*162 net47
*163 net5
*164 net6
*165 net7
*166 net8
*167 net9
*168 signal_bit
*169 signal_gen\.periodA\[0\]
*170 signal_gen\.periodA\[1\]
*171 signal_gen\.periodA\[2\]
*172 signal_gen\.periodA\[3\]
*173 signal_gen\.periodA\[4\]
*174 signal_gen\.tonegenA\.counter\[0\]
*175 signal_gen\.tonegenA\.counter\[10\]
*176 signal_gen\.tonegenA\.counter\[11\]
*177 signal_gen\.tonegenA\.counter\[1\]
*178 signal_gen\.tonegenA\.counter\[2\]
*179 signal_gen\.tonegenA\.counter\[3\]
*180 signal_gen\.tonegenA\.counter\[4\]
*181 signal_gen\.tonegenA\.counter\[5\]
*182 signal_gen\.tonegenA\.counter\[6\]
*183 signal_gen\.tonegenA\.counter\[7\]
*184 signal_gen\.tonegenA\.counter\[8\]
*185 signal_gen\.tonegenA\.counter\[9\]
*186 FILLER_0_101
*187 FILLER_0_108
*188 FILLER_0_113
*189 FILLER_0_119
*190 FILLER_0_133
*191 FILLER_0_135
*192 FILLER_0_138
*193 FILLER_0_143
*194 FILLER_0_149
*195 FILLER_0_157
*196 FILLER_0_161
*197 FILLER_0_169
*198 FILLER_0_172
*199 FILLER_0_2
*200 FILLER_0_206
*201 FILLER_0_240
*202 FILLER_0_256
*203 FILLER_0_264
*204 FILLER_0_268
*205 FILLER_0_270
*206 FILLER_0_36
*207 FILLER_0_70
*208 FILLER_0_86
*209 FILLER_0_90
*210 FILLER_0_95
*211 FILLER_10_100
*212 FILLER_10_121
*213 FILLER_10_123
*214 FILLER_10_132
*215 FILLER_10_161
*216 FILLER_10_17
*217 FILLER_10_173
*218 FILLER_10_2
*219 FILLER_10_21
*220 FILLER_10_211
*221 FILLER_10_270
*222 FILLER_10_37
*223 FILLER_10_4
*224 FILLER_10_41
*225 FILLER_10_92
*226 FILLER_11_10
*227 FILLER_11_138
*228 FILLER_11_191
*229 FILLER_11_199
*230 FILLER_11_2
*231 FILLER_11_201
*232 FILLER_11_230
*233 FILLER_11_234
*234 FILLER_11_236
*235 FILLER_11_72
*236 FILLER_12_107
*237 FILLER_12_111
*238 FILLER_12_113
*239 FILLER_12_148
*240 FILLER_12_164
*241 FILLER_12_172
*242 FILLER_12_174
*243 FILLER_12_177
*244 FILLER_12_225
*245 FILLER_12_24
*246 FILLER_12_241
*247 FILLER_12_32
*248 FILLER_12_34
*249 FILLER_12_37
*250 FILLER_12_8
*251 FILLER_12_97
*252 FILLER_13_114
*253 FILLER_13_118
*254 FILLER_13_120
*255 FILLER_13_127
*256 FILLER_13_129
*257 FILLER_13_134
*258 FILLER_13_138
*259 FILLER_13_146
*260 FILLER_13_154
*261 FILLER_13_189
*262 FILLER_13_2
*263 FILLER_13_205
*264 FILLER_13_209
*265 FILLER_13_216
*266 FILLER_13_258
*267 FILLER_13_262
*268 FILLER_13_264
*269 FILLER_13_67
*270 FILLER_13_69
*271 FILLER_14_10
*272 FILLER_14_102
*273 FILLER_14_104
*274 FILLER_14_113
*275 FILLER_14_121
*276 FILLER_14_16
*277 FILLER_14_169
*278 FILLER_14_173
*279 FILLER_14_177
*280 FILLER_14_185
*281 FILLER_14_193
*282 FILLER_14_2
*283 FILLER_14_201
*284 FILLER_14_205
*285 FILLER_14_207
*286 FILLER_14_247
*287 FILLER_14_249
*288 FILLER_14_254
*289 FILLER_14_270
*290 FILLER_14_32
*291 FILLER_14_34
*292 FILLER_14_37
*293 FILLER_14_45
*294 FILLER_14_47
*295 FILLER_14_82
*296 FILLER_14_90
*297 FILLER_14_98
*298 FILLER_15_10
*299 FILLER_15_112
*300 FILLER_15_120
*301 FILLER_15_124
*302 FILLER_15_142
*303 FILLER_15_174
*304 FILLER_15_2
*305 FILLER_15_216
*306 FILLER_15_224
*307 FILLER_15_228
*308 FILLER_15_234
*309 FILLER_15_266
*310 FILLER_15_270
*311 FILLER_15_64
*312 FILLER_15_68
*313 FILLER_15_72
*314 FILLER_15_76
*315 FILLER_16_10
*316 FILLER_16_104
*317 FILLER_16_107
*318 FILLER_16_171
*319 FILLER_16_177
*320 FILLER_16_185
*321 FILLER_16_193
*322 FILLER_16_2
*323 FILLER_16_22
*324 FILLER_16_225
*325 FILLER_16_241
*326 FILLER_16_247
*327 FILLER_16_263
*328 FILLER_16_30
*329 FILLER_16_34
*330 FILLER_16_37
*331 FILLER_16_53
*332 FILLER_16_59
*333 FILLER_16_75
*334 FILLER_16_83
*335 FILLER_16_88
*336 FILLER_17_136
*337 FILLER_17_142
*338 FILLER_17_2
*339 FILLER_17_206
*340 FILLER_17_212
*341 FILLER_17_244
*342 FILLER_17_260
*343 FILLER_17_268
*344 FILLER_17_270
*345 FILLER_17_42
*346 FILLER_17_58
*347 FILLER_17_6
*348 FILLER_17_66
*349 FILLER_17_72
*350 FILLER_18_101
*351 FILLER_18_107
*352 FILLER_18_171
*353 FILLER_18_177
*354 FILLER_18_2
*355 FILLER_18_241
*356 FILLER_18_247
*357 FILLER_18_263
*358 FILLER_18_34
*359 FILLER_18_37
*360 FILLER_19_136
*361 FILLER_19_142
*362 FILLER_19_2
*363 FILLER_19_206
*364 FILLER_19_212
*365 FILLER_19_244
*366 FILLER_19_260
*367 FILLER_19_264
*368 FILLER_19_266
*369 FILLER_19_66
*370 FILLER_19_72
*371 FILLER_1_136
*372 FILLER_1_142
*373 FILLER_1_2
*374 FILLER_1_206
*375 FILLER_1_212
*376 FILLER_1_244
*377 FILLER_1_260
*378 FILLER_1_264
*379 FILLER_1_266
*380 FILLER_1_66
*381 FILLER_1_72
*382 FILLER_20_101
*383 FILLER_20_107
*384 FILLER_20_139
*385 FILLER_20_147
*386 FILLER_20_149
*387 FILLER_20_164
*388 FILLER_20_172
*389 FILLER_20_174
*390 FILLER_20_177
*391 FILLER_20_2
*392 FILLER_20_241
*393 FILLER_20_247
*394 FILLER_20_263
*395 FILLER_20_34
*396 FILLER_20_37
*397 FILLER_21_136
*398 FILLER_21_142
*399 FILLER_21_150
*400 FILLER_21_152
*401 FILLER_21_169
*402 FILLER_21_2
*403 FILLER_21_201
*404 FILLER_21_209
*405 FILLER_21_212
*406 FILLER_21_244
*407 FILLER_21_260
*408 FILLER_21_264
*409 FILLER_21_266
*410 FILLER_21_66
*411 FILLER_21_72
*412 FILLER_22_101
*413 FILLER_22_104
*414 FILLER_22_112
*415 FILLER_22_114
*416 FILLER_22_119
*417 FILLER_22_127
*418 FILLER_22_131
*419 FILLER_22_144
*420 FILLER_22_169
*421 FILLER_22_180
*422 FILLER_22_185
*423 FILLER_22_191
*424 FILLER_22_197
*425 FILLER_22_2
*426 FILLER_22_203
*427 FILLER_22_210
*428 FILLER_22_226
*429 FILLER_22_234
*430 FILLER_22_240
*431 FILLER_22_256
*432 FILLER_22_264
*433 FILLER_22_266
*434 FILLER_22_36
*435 FILLER_22_70
*436 FILLER_22_78
*437 FILLER_22_83
*438 FILLER_22_95
*439 FILLER_22_99
*440 FILLER_2_101
*441 FILLER_2_107
*442 FILLER_2_171
*443 FILLER_2_177
*444 FILLER_2_2
*445 FILLER_2_241
*446 FILLER_2_247
*447 FILLER_2_263
*448 FILLER_2_34
*449 FILLER_2_37
*450 FILLER_3_136
*451 FILLER_3_142
*452 FILLER_3_206
*453 FILLER_3_212
*454 FILLER_3_244
*455 FILLER_3_260
*456 FILLER_3_268
*457 FILLER_3_270
*458 FILLER_3_36
*459 FILLER_3_68
*460 FILLER_3_72
*461 FILLER_4_101
*462 FILLER_4_107
*463 FILLER_4_171
*464 FILLER_4_177
*465 FILLER_4_2
*466 FILLER_4_241
*467 FILLER_4_247
*468 FILLER_4_263
*469 FILLER_4_34
*470 FILLER_4_37
*471 FILLER_5_100
*472 FILLER_5_102
*473 FILLER_5_137
*474 FILLER_5_139
*475 FILLER_5_142
*476 FILLER_5_150
*477 FILLER_5_166
*478 FILLER_5_198
*479 FILLER_5_2
*480 FILLER_5_206
*481 FILLER_5_212
*482 FILLER_5_220
*483 FILLER_5_224
*484 FILLER_5_229
*485 FILLER_5_38
*486 FILLER_5_72
*487 FILLER_5_88
*488 FILLER_5_96
*489 FILLER_6_103
*490 FILLER_6_107
*491 FILLER_6_115
*492 FILLER_6_134
*493 FILLER_6_138
*494 FILLER_6_173
*495 FILLER_6_177
*496 FILLER_6_18
*497 FILLER_6_187
*498 FILLER_6_195
*499 FILLER_6_2
*500 FILLER_6_247
*501 FILLER_6_251
*502 FILLER_6_37
*503 FILLER_6_53
*504 FILLER_6_61
*505 FILLER_6_99
*506 FILLER_7_129
*507 FILLER_7_138
*508 FILLER_7_142
*509 FILLER_7_158
*510 FILLER_7_162
*511 FILLER_7_164
*512 FILLER_7_169
*513 FILLER_7_18
*514 FILLER_7_2
*515 FILLER_7_207
*516 FILLER_7_209
*517 FILLER_7_228
*518 FILLER_7_264
*519 FILLER_7_68
*520 FILLER_7_80
*521 FILLER_7_88
*522 FILLER_7_92
*523 FILLER_7_94
*524 FILLER_8_103
*525 FILLER_8_107
*526 FILLER_8_115
*527 FILLER_8_123
*528 FILLER_8_139
*529 FILLER_8_16
*530 FILLER_8_174
*531 FILLER_8_177
*532 FILLER_8_193
*533 FILLER_8_2
*534 FILLER_8_201
*535 FILLER_8_215
*536 FILLER_8_217
*537 FILLER_8_226
*538 FILLER_8_242
*539 FILLER_8_244
*540 FILLER_8_247
*541 FILLER_8_255
*542 FILLER_8_268
*543 FILLER_8_270
*544 FILLER_8_32
*545 FILLER_8_34
*546 FILLER_8_37
*547 FILLER_8_91
*548 FILLER_8_99
*549 FILLER_9_132
*550 FILLER_9_142
*551 FILLER_9_144
*552 FILLER_9_153
*553 FILLER_9_169
*554 FILLER_9_173
*555 FILLER_9_175
*556 FILLER_9_190
*557 FILLER_9_198
*558 FILLER_9_2
*559 FILLER_9_212
*560 FILLER_9_229
*561 FILLER_9_233
*562 FILLER_9_48
*563 FILLER_9_66
*564 FILLER_9_80
*565 PHY_EDGE_ROW_0_Left_23
*566 PHY_EDGE_ROW_0_Right_0
*567 PHY_EDGE_ROW_10_Left_33
*568 PHY_EDGE_ROW_10_Right_10
*569 PHY_EDGE_ROW_11_Left_34
*570 PHY_EDGE_ROW_11_Right_11
*571 PHY_EDGE_ROW_12_Left_35
*572 PHY_EDGE_ROW_12_Right_12
*573 PHY_EDGE_ROW_13_Left_36
*574 PHY_EDGE_ROW_13_Right_13
*575 PHY_EDGE_ROW_14_Left_37
*576 PHY_EDGE_ROW_14_Right_14
*577 PHY_EDGE_ROW_15_Left_38
*578 PHY_EDGE_ROW_15_Right_15
*579 PHY_EDGE_ROW_16_Left_39
*580 PHY_EDGE_ROW_16_Right_16
*581 PHY_EDGE_ROW_17_Left_40
*582 PHY_EDGE_ROW_17_Right_17
*583 PHY_EDGE_ROW_18_Left_41
*584 PHY_EDGE_ROW_18_Right_18
*585 PHY_EDGE_ROW_19_Left_42
*586 PHY_EDGE_ROW_19_Right_19
*587 PHY_EDGE_ROW_1_Left_24
*588 PHY_EDGE_ROW_1_Right_1
*589 PHY_EDGE_ROW_20_Left_43
*590 PHY_EDGE_ROW_20_Right_20
*591 PHY_EDGE_ROW_21_Left_44
*592 PHY_EDGE_ROW_21_Right_21
*593 PHY_EDGE_ROW_22_Left_45
*594 PHY_EDGE_ROW_22_Right_22
*595 PHY_EDGE_ROW_2_Left_25
*596 PHY_EDGE_ROW_2_Right_2
*597 PHY_EDGE_ROW_3_Left_26
*598 PHY_EDGE_ROW_3_Right_3
*599 PHY_EDGE_ROW_4_Left_27
*600 PHY_EDGE_ROW_4_Right_4
*601 PHY_EDGE_ROW_5_Left_28
*602 PHY_EDGE_ROW_5_Right_5
*603 PHY_EDGE_ROW_6_Left_29
*604 PHY_EDGE_ROW_6_Right_6
*605 PHY_EDGE_ROW_7_Left_30
*606 PHY_EDGE_ROW_7_Right_7
*607 PHY_EDGE_ROW_8_Left_31
*608 PHY_EDGE_ROW_8_Right_8
*609 PHY_EDGE_ROW_9_Left_32
*610 PHY_EDGE_ROW_9_Right_9
*611 TAP_TAPCELL_ROW_0_46
*612 TAP_TAPCELL_ROW_0_47
*613 TAP_TAPCELL_ROW_0_48
*614 TAP_TAPCELL_ROW_0_49
*615 TAP_TAPCELL_ROW_0_50
*616 TAP_TAPCELL_ROW_0_51
*617 TAP_TAPCELL_ROW_0_52
*618 TAP_TAPCELL_ROW_10_84
*619 TAP_TAPCELL_ROW_10_85
*620 TAP_TAPCELL_ROW_10_86
*621 TAP_TAPCELL_ROW_10_87
*622 TAP_TAPCELL_ROW_11_88
*623 TAP_TAPCELL_ROW_11_89
*624 TAP_TAPCELL_ROW_11_90
*625 TAP_TAPCELL_ROW_12_91
*626 TAP_TAPCELL_ROW_12_92
*627 TAP_TAPCELL_ROW_12_93
*628 TAP_TAPCELL_ROW_12_94
*629 TAP_TAPCELL_ROW_13_95
*630 TAP_TAPCELL_ROW_13_96
*631 TAP_TAPCELL_ROW_13_97
*632 TAP_TAPCELL_ROW_14_100
*633 TAP_TAPCELL_ROW_14_101
*634 TAP_TAPCELL_ROW_14_98
*635 TAP_TAPCELL_ROW_14_99
*636 TAP_TAPCELL_ROW_15_102
*637 TAP_TAPCELL_ROW_15_103
*638 TAP_TAPCELL_ROW_15_104
*639 TAP_TAPCELL_ROW_16_105
*640 TAP_TAPCELL_ROW_16_106
*641 TAP_TAPCELL_ROW_16_107
*642 TAP_TAPCELL_ROW_16_108
*643 TAP_TAPCELL_ROW_17_109
*644 TAP_TAPCELL_ROW_17_110
*645 TAP_TAPCELL_ROW_17_111
*646 TAP_TAPCELL_ROW_18_112
*647 TAP_TAPCELL_ROW_18_113
*648 TAP_TAPCELL_ROW_18_114
*649 TAP_TAPCELL_ROW_18_115
*650 TAP_TAPCELL_ROW_19_116
*651 TAP_TAPCELL_ROW_19_117
*652 TAP_TAPCELL_ROW_19_118
*653 TAP_TAPCELL_ROW_1_53
*654 TAP_TAPCELL_ROW_1_54
*655 TAP_TAPCELL_ROW_1_55
*656 TAP_TAPCELL_ROW_20_119
*657 TAP_TAPCELL_ROW_20_120
*658 TAP_TAPCELL_ROW_20_121
*659 TAP_TAPCELL_ROW_20_122
*660 TAP_TAPCELL_ROW_21_123
*661 TAP_TAPCELL_ROW_21_124
*662 TAP_TAPCELL_ROW_21_125
*663 TAP_TAPCELL_ROW_22_126
*664 TAP_TAPCELL_ROW_22_127
*665 TAP_TAPCELL_ROW_22_128
*666 TAP_TAPCELL_ROW_22_129
*667 TAP_TAPCELL_ROW_22_130
*668 TAP_TAPCELL_ROW_22_131
*669 TAP_TAPCELL_ROW_22_132
*670 TAP_TAPCELL_ROW_2_56
*671 TAP_TAPCELL_ROW_2_57
*672 TAP_TAPCELL_ROW_2_58
*673 TAP_TAPCELL_ROW_2_59
*674 TAP_TAPCELL_ROW_3_60
*675 TAP_TAPCELL_ROW_3_61
*676 TAP_TAPCELL_ROW_3_62
*677 TAP_TAPCELL_ROW_4_63
*678 TAP_TAPCELL_ROW_4_64
*679 TAP_TAPCELL_ROW_4_65
*680 TAP_TAPCELL_ROW_4_66
*681 TAP_TAPCELL_ROW_5_67
*682 TAP_TAPCELL_ROW_5_68
*683 TAP_TAPCELL_ROW_5_69
*684 TAP_TAPCELL_ROW_6_70
*685 TAP_TAPCELL_ROW_6_71
*686 TAP_TAPCELL_ROW_6_72
*687 TAP_TAPCELL_ROW_6_73
*688 TAP_TAPCELL_ROW_7_74
*689 TAP_TAPCELL_ROW_7_75
*690 TAP_TAPCELL_ROW_7_76
*691 TAP_TAPCELL_ROW_8_77
*692 TAP_TAPCELL_ROW_8_78
*693 TAP_TAPCELL_ROW_8_79
*694 TAP_TAPCELL_ROW_8_80
*695 TAP_TAPCELL_ROW_9_81
*696 TAP_TAPCELL_ROW_9_82
*697 TAP_TAPCELL_ROW_9_83
*698 _089_
*699 _090_
*700 _091_
*701 _092_
*702 _093_
*703 _094_
*704 _095_
*705 _096_
*706 _097_
*707 _098_
*708 _099_
*709 _100_
*710 _101_
*711 _102_
*712 _103_
*713 _104_
*714 _105_
*715 _106_
*716 _107_
*717 _108_
*718 _109_
*719 _110_
*720 _111_
*721 _112_
*722 _113_
*723 _114_
*724 _115_
*725 _116_
*726 _117_
*727 _118_
*728 _119_
*729 _120_
*730 _121_
*731 _122_
*732 _123_
*733 _124_
*734 _125_
*735 _126_
*736 _127_
*737 _128_
*738 _129_
*739 _130_
*740 _131_
*741 _132_
*742 _133_
*743 _134_
*744 _135_
*745 _136_
*746 _137_
*747 _138_
*748 _139_
*749 _140_
*750 _141_
*751 _142_
*752 _143_
*753 _144_
*754 _145_
*755 _146_
*756 _147_
*757 _148_
*758 _149_
*759 _150_
*760 _151_
*761 _152_
*762 _153_
*763 _154_
*764 _155_
*765 _156_
*766 _157_
*767 _158_
*768 _159_
*769 _160_
*770 _161_
*771 _162_
*772 _163_
*773 _164_
*774 _165_
*775 _166_
*776 _167_
*777 _168_
*778 _169_
*779 _170_
*780 _171_
*781 _172_
*782 _173_
*783 _174_
*784 _175_
*785 _175__43
*786 _176_
*787 _176__42
*788 _177_
*789 _177__41
*790 _178_
*791 _178__40
*792 _179_
*793 _179__39
*794 _180_
*795 _180__38
*796 _181_
*797 _182_
*798 _183_
*799 _184_
*800 _185_
*801 _186_
*802 _187_
*803 _188_
*804 _189_
*805 _189__47
*806 _190_
*807 _190__46
*808 _191_
*809 _191__45
*810 _192_
*811 _192__44
*812 _193_
*813 _194_
*814 _195_
*815 _196_
*816 _197_
*817 _198_
*818 _232_
*819 clkbuf_0_clk
*820 clkbuf_1_0__f_clk
*821 clkbuf_1_1__f_clk
*822 clkload0
*823 fanout12
*824 fanout13
*825 fanout14
*826 fanout15
*827 fanout16
*828 fanout17
*829 input1
*830 input10
*831 input11
*832 input2
*833 input3
*834 input4
*835 input5
*836 input6
*837 input7
*838 input8
*839 input9
*840 tt_um_felixfeierabend_18
*841 tt_um_felixfeierabend_19
*842 tt_um_felixfeierabend_20
*843 tt_um_felixfeierabend_21
*844 tt_um_felixfeierabend_22
*845 tt_um_felixfeierabend_23
*846 tt_um_felixfeierabend_24
*847 tt_um_felixfeierabend_25
*848 tt_um_felixfeierabend_26
*849 tt_um_felixfeierabend_27
*850 tt_um_felixfeierabend_28
*851 tt_um_felixfeierabend_29
*852 tt_um_felixfeierabend_30
*853 tt_um_felixfeierabend_31
*854 tt_um_felixfeierabend_32
*855 tt_um_felixfeierabend_33
*856 tt_um_felixfeierabend_34
*857 tt_um_felixfeierabend_35
*858 tt_um_felixfeierabend_36
*859 tt_um_felixfeierabend_37
*860 tt_um_felixfeierabend_48
*861 tt_um_felixfeierabend_49
*862 tt_um_felixfeierabend_50

*PORTS
clk I
ena I
rst_n I
ui_in[0] I
ui_in[1] I
ui_in[2] I
ui_in[3] I
ui_in[4] I
ui_in[5] I
ui_in[6] I
ui_in[7] I
uio_in[0] I
uio_in[1] I
uio_in[2] I
uio_in[3] I
uio_in[4] I
uio_in[5] I
uio_in[6] I
uio_in[7] I
uio_oe[0] O
uio_oe[1] O
uio_oe[2] O
uio_oe[3] O
uio_oe[4] O
uio_oe[5] O
uio_oe[6] O
uio_oe[7] O
uio_out[0] O
uio_out[1] O
uio_out[2] O
uio_out[3] O
uio_out[4] O
uio_out[5] O
uio_out[6] O
uio_out[7] O
uo_out[0] O
uo_out[1] O
uo_out[2] O
uo_out[3] O
uo_out[4] O
uo_out[5] O
uo_out[6] O
uo_out[7] O

*D_NET *3 0.00453392
*CONN
*P clk I
*I *819:I I *D gf180mcu_fd_sc_mcu7t5v0__clkbuf_16
*CAP
1 clk 0.00187629
2 *819:I 0.00187629
3 *819:I *733:A2 6.73926e-05
4 *819:I *733:A4 1.76345e-05
5 *819:I *734:A1 0.000199393
6 *819:I *734:C 3.41936e-05
7 *819:I *735:I 2.23385e-05
8 *819:I *788:RN 0.000290808
9 *819:I *98:6 0.000149579
*RES
1 clk *819:I 21.882 
*END

*D_NET *4 0.000452928
*CONN
*P ena I
*I *829:I I *D gf180mcu_fd_sc_mcu7t5v0__clkbuf_1
*CAP
1 ena 0.000211588
2 *829:I 0.000211588
3 *829:I *139:41 2.97523e-05
*RES
1 ena *829:I 10.482 
*END

*D_NET *5 0.000397885
*CONN
*P rst_n I
*I *832:I I *D gf180mcu_fd_sc_mcu7t5v0__clkbuf_1
*CAP
1 rst_n 0.000177384
2 *832:I 0.000177384
3 *832:I uo_out[0] 4.31164e-05
*RES
1 rst_n *832:I 10.33 
*END

*D_NET *6 0.000703219
*CONN
*P ui_in[0] I
*I *833:I I *D gf180mcu_fd_sc_mcu7t5v0__clkbuf_1
*CAP
1 ui_in[0] 0.000298718
2 *833:I 0.000298718
3 *833:I *830:I 5.28916e-05
4 *833:I *831:I 5.28916e-05
*RES
1 ui_in[0] *833:I 6.742 
*END

*D_NET *9 0.000477818
*CONN
*P ui_in[3] I
*I *834:I I *D gf180mcu_fd_sc_mcu7t5v0__clkbuf_1
*CAP
1 ui_in[3] 0.000236027
2 *834:I 0.000236027
3 *834:I *757:I0 5.76373e-06
*RES
1 ui_in[3] *834:I 5.982 
*END

*D_NET *10 0.00108712
*CONN
*P ui_in[4] I
*I *835:I I *D gf180mcu_fd_sc_mcu7t5v0__clkbuf_1
*CAP
1 ui_in[4] 0.000457831
2 *835:I 0.000457831
3 *835:I uio_out[4] 0.000171459
*RES
1 ui_in[4] *835:I 16.654 
*END

*D_NET *11 0.00071213
*CONN
*P ui_in[5] I
*I *836:I I *D gf180mcu_fd_sc_mcu7t5v0__clkbuf_1
*CAP
1 ui_in[5] 0.000351121
2 *836:I 0.000351121
3 *836:I *759:I0 9.88736e-06
*RES
1 ui_in[5] *836:I 15.438 
*END

*D_NET *12 0.000641975
*CONN
*P ui_in[6] I
*I *837:I I *D gf180mcu_fd_sc_mcu7t5v0__clkbuf_1
*CAP
1 ui_in[6] 0.00030294
2 *837:I 0.00030294
3 *837:I *760:I0 0
4 *837:I *838:I 3.60957e-05
*RES
1 ui_in[6] *837:I 10.938 
*END

*D_NET *13 0.000625054
*CONN
*P ui_in[7] I
*I *838:I I *D gf180mcu_fd_sc_mcu7t5v0__clkbuf_1
*CAP
1 ui_in[7] 0.000240924
2 *838:I 0.000240924
3 *838:I *700:I 0.00010711
4 *837:I *838:I 3.60957e-05
*RES
1 ui_in[7] *838:I 10.634 
*END

*D_NET *14 0.000667909
*CONN
*P uio_in[0] I
*I *839:I I *D gf180mcu_fd_sc_mcu7t5v0__clkbuf_1
*CAP
1 uio_in[0] 0.000291443
2 *839:I 0.000291443
3 *839:I uio_out[4] 3.21323e-05
4 *839:I *831:I 5.28916e-05
*RES
1 uio_in[0] *839:I 6.59 
*END

*D_NET *15 0.00078571
*CONN
*P uio_in[1] I
*I *830:I I *D gf180mcu_fd_sc_mcu7t5v0__clkbuf_1
*CAP
1 uio_in[1] 0.000350343
2 *830:I 0.000350343
3 *830:I uio_oe[7] 3.21323e-05
4 *833:I *830:I 5.28916e-05
*RES
1 uio_in[1] *830:I 15.894 
*END

*D_NET *16 0.000659481
*CONN
*P uio_in[2] I
*I *831:I I *D gf180mcu_fd_sc_mcu7t5v0__clkbuf_1
*CAP
1 uio_in[2] 0.000276849
2 *831:I 0.000276849
3 *833:I *831:I 5.28916e-05
4 *839:I *831:I 5.28916e-05
*RES
1 uio_in[2] *831:I 6.59 
*END

*D_NET *22 0.000564628
*CONN
*P uio_oe[0] O
*I *860:Z O *D gf180mcu_fd_sc_mcu7t5v0__tieh
*CAP
1 uio_oe[0] 0.000282314
2 *860:Z 0.000282314
*RES
1 *860:Z uio_oe[0] 6.286 
*END

*D_NET *23 0.00061351
*CONN
*P uio_oe[1] O
*I *861:Z O *D gf180mcu_fd_sc_mcu7t5v0__tieh
*CAP
1 uio_oe[1] 0.00029326
2 *861:Z 0.00029326
3 uio_oe[1] uio_out[3] 2.69911e-05
*RES
1 *861:Z uio_oe[1] 6.514 
*END

*D_NET *24 0.000543128
*CONN
*P uio_oe[2] O
*I *862:Z O *D gf180mcu_fd_sc_mcu7t5v0__tieh
*CAP
1 uio_oe[2] 0.000271564
2 *862:Z 0.000271564
*RES
1 *862:Z uio_oe[2] 10.634 
*END

*D_NET *25 0.000436773
*CONN
*P uio_oe[3] O
*I *840:ZN O *D gf180mcu_fd_sc_mcu7t5v0__tiel
*CAP
1 uio_oe[3] 0.000191201
2 *840:ZN 0.000191201
3 uio_oe[3] uio_oe[4] 2.71858e-05
4 uio_oe[3] uio_out[0] 2.71858e-05
*RES
1 *840:ZN uio_oe[3] 5.83 
*END

*D_NET *26 0.000435093
*CONN
*P uio_oe[4] O
*I *841:ZN O *D gf180mcu_fd_sc_mcu7t5v0__tiel
*CAP
1 uio_oe[4] 0.000203954
2 *841:ZN 0.000203954
3 uio_oe[3] uio_oe[4] 2.71858e-05
*RES
1 *841:ZN uio_oe[4] 5.83 
*END

*D_NET *27 0.000435093
*CONN
*P uio_oe[5] O
*I *842:ZN O *D gf180mcu_fd_sc_mcu7t5v0__tiel
*CAP
1 uio_oe[5] 0.000203954
2 *842:ZN 0.000203954
3 uio_oe[5] uo_out[6] 2.71858e-05
*RES
1 *842:ZN uio_oe[5] 5.83 
*END

*D_NET *28 0.000695841
*CONN
*P uio_oe[6] O
*I *843:ZN O *D gf180mcu_fd_sc_mcu7t5v0__tiel
*CAP
1 uio_oe[6] 0.000347921
2 *843:ZN 0.000347921
*RES
1 *843:ZN uio_oe[6] 6.742 
*END

*D_NET *29 0.00095279
*CONN
*P uio_oe[7] O
*I *844:ZN O *D gf180mcu_fd_sc_mcu7t5v0__tiel
*CAP
1 uio_oe[7] 0.00040813
2 *844:ZN 0.00040813
3 uio_oe[7] uio_out[5] 0.000104398
4 *830:I uio_oe[7] 3.21323e-05
*RES
1 *844:ZN uio_oe[7] 16.274 
*END

*D_NET *30 0.000509639
*CONN
*P uio_out[0] O
*I *845:ZN O *D gf180mcu_fd_sc_mcu7t5v0__tiel
*CAP
1 uio_out[0] 0.000227634
2 *845:ZN 0.000227634
3 uio_out[0] uo_out[6] 2.71858e-05
4 uio_oe[3] uio_out[0] 2.71858e-05
*RES
1 *845:ZN uio_out[0] 5.982 
*END

*D_NET *31 0.00031269
*CONN
*P uio_out[1] O
*I *846:ZN O *D gf180mcu_fd_sc_mcu7t5v0__tiel
*CAP
1 uio_out[1] 0.000136006
2 *846:ZN 0.000136006
3 uio_out[1] uio_out[6] 4.06786e-05
*RES
1 *846:ZN uio_out[1] 10.102 
*END

*D_NET *32 0.000725096
*CONN
*P uio_out[2] O
*I *847:ZN O *D gf180mcu_fd_sc_mcu7t5v0__tiel
*CAP
1 uio_out[2] 0.000260573
2 *847:ZN 0.000260573
3 uio_out[2] uio_out[5] 0.000145917
4 uio_out[2] uo_out[3] 5.80328e-05
*RES
1 *847:ZN uio_out[2] 6.742 
*END

*D_NET *33 0.000702042
*CONN
*P uio_out[3] O
*I *848:ZN O *D gf180mcu_fd_sc_mcu7t5v0__tiel
*CAP
1 uio_out[3] 0.000308509
2 *848:ZN 0.000308509
3 uio_out[3] uo_out[7] 5.80328e-05
4 uio_oe[1] uio_out[3] 2.69911e-05
*RES
1 *848:ZN uio_out[3] 6.742 
*END

*D_NET *34 0.000856962
*CONN
*P uio_out[4] O
*I *849:ZN O *D gf180mcu_fd_sc_mcu7t5v0__tiel
*CAP
1 uio_out[4] 0.000326685
2 *849:ZN 0.000326685
3 uio_out[4] *758:I0 0
4 *835:I uio_out[4] 0.000171459
5 *839:I uio_out[4] 3.21323e-05
*RES
1 *849:ZN uio_out[4] 7.122 
*END

*D_NET *35 0.000820617
*CONN
*P uio_out[5] O
*I *850:ZN O *D gf180mcu_fd_sc_mcu7t5v0__tiel
*CAP
1 uio_out[5] 0.000285151
2 *850:ZN 0.000285151
3 uio_oe[7] uio_out[5] 0.000104398
4 uio_out[2] uio_out[5] 0.000145917
*RES
1 *850:ZN uio_out[5] 6.97 
*END

*D_NET *36 0.000451688
*CONN
*P uio_out[6] O
*I *851:ZN O *D gf180mcu_fd_sc_mcu7t5v0__tiel
*CAP
1 uio_out[6] 0.000205505
2 *851:ZN 0.000205505
3 uio_out[1] uio_out[6] 4.06786e-05
*RES
1 *851:ZN uio_out[6] 10.482 
*END

*D_NET *37 0.000435093
*CONN
*P uio_out[7] O
*I *852:ZN O *D gf180mcu_fd_sc_mcu7t5v0__tiel
*CAP
1 uio_out[7] 0.000203954
2 *852:ZN 0.000203954
3 uio_out[7] uo_out[4] 2.71858e-05
*RES
1 *852:ZN uio_out[7] 5.83 
*END

*D_NET *38 0.000472417
*CONN
*P uo_out[0] O
*I *818:Z O *D gf180mcu_fd_sc_mcu7t5v0__clkbuf_3
*CAP
1 uo_out[0] 0.000178327
2 *818:Z 0.000178327
3 uo_out[0] *168:10 7.2647e-05
4 *832:I uo_out[0] 4.31164e-05
*RES
1 *818:Z uo_out[0] 10.482 
*END

*D_NET *39 0.000695841
*CONN
*P uo_out[1] O
*I *853:ZN O *D gf180mcu_fd_sc_mcu7t5v0__tiel
*CAP
1 uo_out[1] 0.000347921
2 *853:ZN 0.000347921
*RES
1 *853:ZN uo_out[1] 6.742 
*END

*D_NET *40 0.000674341
*CONN
*P uo_out[2] O
*I *854:ZN O *D gf180mcu_fd_sc_mcu7t5v0__tiel
*CAP
1 uo_out[2] 0.000337171
2 *854:ZN 0.000337171
*RES
1 *854:ZN uo_out[2] 11.09 
*END

*D_NET *41 0.000704023
*CONN
*P uo_out[3] O
*I *855:ZN O *D gf180mcu_fd_sc_mcu7t5v0__tiel
*CAP
1 uo_out[3] 0.000293979
2 *855:ZN 0.000293979
3 uo_out[3] uo_out[7] 5.80328e-05
4 uio_out[2] uo_out[3] 5.80328e-05
*RES
1 *855:ZN uo_out[3] 6.742 
*END

*D_NET *42 0.000435093
*CONN
*P uo_out[4] O
*I *856:ZN O *D gf180mcu_fd_sc_mcu7t5v0__tiel
*CAP
1 uo_out[4] 0.000203954
2 *856:ZN 0.000203954
3 uio_out[7] uo_out[4] 2.71858e-05
*RES
1 *856:ZN uo_out[4] 5.83 
*END

*D_NET *43 0.000299241
*CONN
*P uo_out[5] O
*I *857:ZN O *D gf180mcu_fd_sc_mcu7t5v0__tiel
*CAP
1 uo_out[5] 0.000149621
2 *857:ZN 0.000149621
*RES
1 *857:ZN uo_out[5] 10.102 
*END

*D_NET *44 0.000455309
*CONN
*P uo_out[6] O
*I *858:ZN O *D gf180mcu_fd_sc_mcu7t5v0__tiel
*CAP
1 uo_out[6] 0.000200469
2 *858:ZN 0.000200469
3 uio_oe[5] uo_out[6] 2.71858e-05
4 uio_out[0] uo_out[6] 2.71858e-05
*RES
1 *858:ZN uo_out[6] 5.83 
*END

*D_NET *45 0.000704023
*CONN
*P uo_out[7] O
*I *859:ZN O *D gf180mcu_fd_sc_mcu7t5v0__tiel
*CAP
1 uo_out[7] 0.000293979
2 *859:ZN 0.000293979
3 uio_out[3] uo_out[7] 5.80328e-05
4 uo_out[3] uo_out[7] 5.80328e-05
*RES
1 *859:ZN uo_out[7] 6.742 
*END

*D_NET *46 0.0034535
*CONN
*I *778:D I *D gf180mcu_fd_sc_mcu7t5v0__dffrnq_1
*I *737:ZN O *D gf180mcu_fd_sc_mcu7t5v0__nor2_1
*CAP
1 *778:D 0.000410711
2 *737:ZN 0.000410711
3 *778:D *778:CLK 0.000253226
4 *778:D *782:D 0.0011426
5 *778:D *139:12 6.03845e-05
6 *778:D *139:16 0.000858365
7 *778:D *139:30 0.000317503
*RES
1 *737:ZN *778:D 23.928 
*END

*D_NET *47 0.0007957
*CONN
*I *779:D I *D gf180mcu_fd_sc_mcu7t5v0__dffrnq_1
*I *739:ZN O *D gf180mcu_fd_sc_mcu7t5v0__nor2_1
*CAP
1 *779:D 0.000191256
2 *739:ZN 0.000191256
3 *779:D *738:A1 2.97354e-06
4 *779:D *738:A2 1.49066e-06
5 *779:D *126:12 0.00010808
6 *779:D *139:6 1.91917e-06
7 *779:D *139:12 0.000213194
8 *779:D *146:41 8.55327e-05
*RES
1 *739:ZN *779:D 19.52 
*END

*D_NET *48 0.000425247
*CONN
*I *780:D I *D gf180mcu_fd_sc_mcu7t5v0__dffrnq_1
*I *742:ZN O *D gf180mcu_fd_sc_mcu7t5v0__nor3_1
*CAP
1 *780:D 0.000205116
2 *742:ZN 0.000205116
3 *780:D *742:A1 1.5015e-05
*RES
1 *742:ZN *780:D 10.216 
*END

*D_NET *49 0.00104808
*CONN
*I *781:D I *D gf180mcu_fd_sc_mcu7t5v0__dffrnq_1
*I *745:ZN O *D gf180mcu_fd_sc_mcu7t5v0__nor3_1
*CAP
1 *781:D 0.000170387
2 *745:ZN 0.000170387
3 *781:D *740:A1 3.08902e-05
4 *781:D *740:A3 0.000403764
5 *781:D *745:A3 3.17546e-05
6 *781:D *779:RN 3.84145e-06
7 *781:D *780:CLK 2.9378e-06
8 *781:D *131:10 0.000190808
9 *781:D *140:20 4.33077e-05
*RES
1 *745:ZN *781:D 19.824 
*END

*D_NET *50 0.00266129
*CONN
*I *782:D I *D gf180mcu_fd_sc_mcu7t5v0__dffrnq_1
*I *747:ZN O *D gf180mcu_fd_sc_mcu7t5v0__nor2_1
*CAP
1 *782:D 0.000472711
2 *747:ZN 0.000472711
3 *782:D *737:A1 3.56141e-05
4 *782:D *737:A2 5.48085e-05
5 *782:D *783:D 6.12935e-05
6 *782:D *100:29 1.72912e-05
7 *782:D *139:30 0.000254684
8 *782:D *139:41 0.000149579
9 *778:D *782:D 0.0011426
*RES
1 *747:ZN *782:D 14.32 
*END

*D_NET *51 0.000644353
*CONN
*I *783:D I *D gf180mcu_fd_sc_mcu7t5v0__dffrnq_1
*I *749:ZN O *D gf180mcu_fd_sc_mcu7t5v0__nor2_1
*CAP
1 *783:D 0.000120485
2 *749:ZN 0.000120485
3 *783:D *749:A2 9.17202e-06
4 *783:D *100:29 0.000317494
5 *783:D *139:41 1.54235e-05
6 *782:D *783:D 6.12935e-05
*RES
1 *749:ZN *783:D 10.292 
*END

*D_NET *52 0.000505687
*CONN
*I *796:D I *D gf180mcu_fd_sc_mcu7t5v0__dffrnq_1
*I *750:ZN O *D gf180mcu_fd_sc_mcu7t5v0__nor2_1
*CAP
1 *796:D 0.000172342
2 *750:ZN 0.000172342
3 *796:D *750:A1 6.44359e-05
4 *796:D *750:A2 9.65679e-05
5 *796:D *752:A2 0
6 *796:D *145:97 0
*RES
1 *750:ZN *796:D 10.52 
*END

*D_NET *53 0.00263901
*CONN
*I *797:D I *D gf180mcu_fd_sc_mcu7t5v0__dffrnq_1
*I *752:ZN O *D gf180mcu_fd_sc_mcu7t5v0__nor2_1
*CAP
1 *797:D 0.000374126
2 *752:ZN 0.000374126
3 *797:D *798:D 0.00015961
4 *797:D *802:CLK 0
5 *797:D *825:I 1.85245e-05
6 *797:D *84:72 8.55242e-05
7 *797:D *145:32 0.000342519
8 *797:D *145:86 0.00116867
9 *797:D *146:8 0.000102763
10 *797:D *177:10 1.31444e-05
*RES
1 *752:ZN *797:D 22.712 
*END

*D_NET *54 0.0026079
*CONN
*I *798:D I *D gf180mcu_fd_sc_mcu7t5v0__dffrnq_1
*I *754:ZN O *D gf180mcu_fd_sc_mcu7t5v0__nor3_1
*CAP
1 *798:D 0.000568896
2 *754:ZN 0.000568896
3 *798:D *825:I 2.97354e-06
4 *798:D *84:72 0.000340241
5 *798:D *130:14 0.000117341
6 *798:D *145:86 0.000819674
7 *798:D *147:36 3.02712e-05
8 *797:D *798:D 0.00015961
*RES
1 *754:ZN *798:D 23.624 
*END

*D_NET *55 0.000951846
*CONN
*I *799:D I *D gf180mcu_fd_sc_mcu7t5v0__dffrnq_1
*I *719:ZN O *D gf180mcu_fd_sc_mcu7t5v0__nor3_1
*CAP
1 *799:D 0.000169525
2 *719:ZN 0.000169525
3 *799:D *704:B 0.000469248
4 *799:D *719:A2 0.000137785
5 *799:D *86:8 5.76373e-06
*RES
1 *719:ZN *799:D 10.748 
*END

*D_NET *56 0.00044155
*CONN
*I *800:D I *D gf180mcu_fd_sc_mcu7t5v0__dffrnq_1
*I *722:ZN O *D gf180mcu_fd_sc_mcu7t5v0__nor3_1
*CAP
1 *800:D 0.00012525
2 *722:ZN 0.00012525
3 *800:D *720:A2 2.96977e-05
4 *800:D *721:A1 0.000131642
5 *800:D *722:A3 1.02578e-05
6 *800:D *88:8 9.56442e-06
7 *800:D *144:44 9.88736e-06
*RES
1 *722:ZN *800:D 10.064 
*END

*D_NET *57 0.00135246
*CONN
*I *801:D I *D gf180mcu_fd_sc_mcu7t5v0__dffrnq_1
*I *725:ZN O *D gf180mcu_fd_sc_mcu7t5v0__nor3_1
*CAP
1 *801:D 0.000309747
2 *725:ZN 0.000309747
3 *801:D *723:A2 0
4 *801:D *144:100 0.000369754
5 *801:D *148:54 0.000269848
6 *801:D *181:12 9.3367e-05
7 *801:D *181:23 0
*RES
1 *725:ZN *801:D 20.736 
*END

*D_NET *58 0.00142175
*CONN
*I *802:D I *D gf180mcu_fd_sc_mcu7t5v0__dffrnq_1
*I *727:ZN O *D gf180mcu_fd_sc_mcu7t5v0__aoi211_1
*CAP
1 *802:D 0.000260223
2 *727:ZN 0.000260223
3 *802:D *709:A1 0.0004212
4 *802:D *728:A1 5.75752e-06
5 *802:D *729:A2 1.71121e-05
6 *802:D *802:CLK 6.25174e-05
7 *802:D *148:54 0.000124856
8 *802:D *182:18 0.000269857
*RES
1 *727:ZN *802:D 20.736 
*END

*D_NET *59 0.000640519
*CONN
*I *803:D I *D gf180mcu_fd_sc_mcu7t5v0__dffrnq_1
*I *729:ZN O *D gf180mcu_fd_sc_mcu7t5v0__nor2_1
*CAP
1 *803:D 0.000156471
2 *729:ZN 0.000156471
3 *803:D *729:A1 0.00032464
4 *803:D *148:68 2.9378e-06
*RES
1 *729:ZN *803:D 10.368 
*END

*D_NET *60 0.000575562
*CONN
*I *777:RN I *D gf180mcu_fd_sc_mcu7t5v0__dffrnq_1
*I *703:ZN O *D gf180mcu_fd_sc_mcu7t5v0__clkinv_1
*CAP
1 *777:RN 0.000287781
2 *703:ZN 0.000287781
3 *777:RN *148:31 0
4 *777:RN *168:10 0
*RES
1 *703:ZN *777:RN 10.824 
*END

*D_NET *61 0.000528989
*CONN
*I *796:RN I *D gf180mcu_fd_sc_mcu7t5v0__dffrnq_1
*I *765:ZN O *D gf180mcu_fd_sc_mcu7t5v0__clkinv_1
*CAP
1 *796:RN 0.000146125
2 *765:ZN 0.000146125
3 *796:RN *111:20 0
4 *796:RN *170:27 0.00023674
*RES
1 *765:ZN *796:RN 10.368 
*END

*D_NET *62 0.000561518
*CONN
*I *797:RN I *D gf180mcu_fd_sc_mcu7t5v0__dffrnq_1