* NGSPICE file created from tiny_tonegen.ext - technology: gf180mcuD

* Black-box entry subcircuit for gf180mcu_fd_sc_mcu7t5v0__fill_2 abstract view
.subckt gf180mcu_fd_sc_mcu7t5v0__fill_2 VDD VNW VPW VSS
.ends

* Black-box entry subcircuit for gf180mcu_fd_sc_mcu7t5v0__fillcap_4 abstract view
.subckt gf180mcu_fd_sc_mcu7t5v0__fillcap_4 VDD VNW VPW VSS
.ends

* Black-box entry subcircuit for gf180mcu_fd_sc_mcu7t5v0__fill_1 abstract view
.subckt gf180mcu_fd_sc_mcu7t5v0__fill_1 VDD VNW VPW VSS
.ends

* Black-box entry subcircuit for gf180mcu_fd_sc_mcu7t5v0__filltie abstract view
.subckt gf180mcu_fd_sc_mcu7t5v0__filltie VDD VSS
.ends

* Black-box entry subcircuit for gf180mcu_fd_sc_mcu7t5v0__endcap abstract view
.subckt gf180mcu_fd_sc_mcu7t5v0__endcap VDD VSS
.ends

* Black-box entry subcircuit for gf180mcu_fd_sc_mcu7t5v0__mux2_2 abstract view
.subckt gf180mcu_fd_sc_mcu7t5v0__mux2_2 I0 I1 S Z VDD VNW VPW VSS
.ends

* Black-box entry subcircuit for gf180mcu_fd_sc_mcu7t5v0__nand2_1 abstract view
.subckt gf180mcu_fd_sc_mcu7t5v0__nand2_1 A1 A2 ZN VDD VNW VPW VSS
.ends

* Black-box entry subcircuit for gf180mcu_fd_sc_mcu7t5v0__clkinv_1 abstract view
.subckt gf180mcu_fd_sc_mcu7t5v0__clkinv_1 I ZN VDD VNW VPW VSS
.ends

* Black-box entry subcircuit for gf180mcu_fd_sc_mcu7t5v0__fillcap_16 abstract view
.subckt gf180mcu_fd_sc_mcu7t5v0__fillcap_16 VDD VNW VPW VSS
.ends

* Black-box entry subcircuit for gf180mcu_fd_sc_mcu7t5v0__nor3_4 abstract view
.subckt gf180mcu_fd_sc_mcu7t5v0__nor3_4 A1 A2 A3 ZN VDD VNW VPW VSS
.ends

* Black-box entry subcircuit for gf180mcu_fd_sc_mcu7t5v0__fillcap_32 abstract view
.subckt gf180mcu_fd_sc_mcu7t5v0__fillcap_32 VDD VNW VPW VSS
.ends

* Black-box entry subcircuit for gf180mcu_fd_sc_mcu7t5v0__fillcap_64 abstract view
.subckt gf180mcu_fd_sc_mcu7t5v0__fillcap_64 VDD VNW VPW VSS
.ends

* Black-box entry subcircuit for gf180mcu_fd_sc_mcu7t5v0__dffsnq_1 abstract view
.subckt gf180mcu_fd_sc_mcu7t5v0__dffsnq_1 D SETN CLK Q VDD VNW VPW VSS
.ends

* Black-box entry subcircuit for gf180mcu_fd_sc_mcu7t5v0__fillcap_8 abstract view
.subckt gf180mcu_fd_sc_mcu7t5v0__fillcap_8 VDD VNW VPW VSS
.ends

* Black-box entry subcircuit for gf180mcu_fd_sc_mcu7t5v0__dffrnq_1 abstract view
.subckt gf180mcu_fd_sc_mcu7t5v0__dffrnq_1 D RN CLK Q VDD VNW VPW VSS
.ends

* Black-box entry subcircuit for gf180mcu_fd_sc_mcu7t5v0__inv_1 abstract view
.subckt gf180mcu_fd_sc_mcu7t5v0__inv_1 I ZN VDD VNW VPW VSS
.ends

* Black-box entry subcircuit for gf180mcu_fd_sc_mcu7t5v0__tiel abstract view
.subckt gf180mcu_fd_sc_mcu7t5v0__tiel ZN VDD VNW VPW VSS
.ends

* Black-box entry subcircuit for gf180mcu_fd_sc_mcu7t5v0__aoi21_1 abstract view
.subckt gf180mcu_fd_sc_mcu7t5v0__aoi21_1 A1 A2 B ZN VDD VNW VPW VSS
.ends

* Black-box entry subcircuit for gf180mcu_fd_sc_mcu7t5v0__oai21_1 abstract view
.subckt gf180mcu_fd_sc_mcu7t5v0__oai21_1 A1 A2 B ZN VDD VNW VPW VSS
.ends

* Black-box entry subcircuit for gf180mcu_fd_sc_mcu7t5v0__clkbuf_2 abstract view
.subckt gf180mcu_fd_sc_mcu7t5v0__clkbuf_2 I Z VDD VNW VPW VSS
.ends

* Black-box entry subcircuit for gf180mcu_fd_sc_mcu7t5v0__dffq_1 abstract view
.subckt gf180mcu_fd_sc_mcu7t5v0__dffq_1 D CLK Q VDD VNW VPW VSS
.ends

* Black-box entry subcircuit for gf180mcu_fd_sc_mcu7t5v0__nand4_2 abstract view
.subckt gf180mcu_fd_sc_mcu7t5v0__nand4_2 A1 A2 A3 A4 ZN VDD VNW VPW VSS
.ends

* Black-box entry subcircuit for gf180mcu_fd_sc_mcu7t5v0__clkbuf_16 abstract view
.subckt gf180mcu_fd_sc_mcu7t5v0__clkbuf_16 I Z VDD VNW VPW VSS
.ends

* Black-box entry subcircuit for gf180mcu_fd_sc_mcu7t5v0__dffq_2 abstract view
.subckt gf180mcu_fd_sc_mcu7t5v0__dffq_2 D CLK Q VDD VNW VPW VSS
.ends

* Black-box entry subcircuit for gf180mcu_fd_sc_mcu7t5v0__nor2_1 abstract view
.subckt gf180mcu_fd_sc_mcu7t5v0__nor2_1 A1 A2 ZN VDD VNW VPW VSS
.ends

* Black-box entry subcircuit for gf180mcu_fd_sc_mcu7t5v0__and2_1 abstract view
.subckt gf180mcu_fd_sc_mcu7t5v0__and2_1 A1 A2 Z VDD VNW VPW VSS
.ends

* Black-box entry subcircuit for gf180mcu_fd_sc_mcu7t5v0__buf_2 abstract view
.subckt gf180mcu_fd_sc_mcu7t5v0__buf_2 I Z VDD VNW VPW VSS
.ends

* Black-box entry subcircuit for gf180mcu_fd_sc_mcu7t5v0__nand3_1 abstract view
.subckt gf180mcu_fd_sc_mcu7t5v0__nand3_1 A1 A2 A3 ZN VDD VNW VPW VSS
.ends

* Black-box entry subcircuit for gf180mcu_fd_sc_mcu7t5v0__clkbuf_3 abstract view
.subckt gf180mcu_fd_sc_mcu7t5v0__clkbuf_3 I Z VDD VNW VPW VSS
.ends

* Black-box entry subcircuit for gf180mcu_fd_sc_mcu7t5v0__buf_4 abstract view
.subckt gf180mcu_fd_sc_mcu7t5v0__buf_4 I Z VDD VNW VPW VSS
.ends

* Black-box entry subcircuit for gf180mcu_fd_sc_mcu7t5v0__clkbuf_1 abstract view
.subckt gf180mcu_fd_sc_mcu7t5v0__clkbuf_1 I Z VDD VNW VPW VSS
.ends

* Black-box entry subcircuit for gf180mcu_fd_sc_mcu7t5v0__xor2_1 abstract view
.subckt gf180mcu_fd_sc_mcu7t5v0__xor2_1 A1 A2 Z VDD VNW VPW VSS
.ends

* Black-box entry subcircuit for gf180mcu_fd_sc_mcu7t5v0__buf_1 abstract view
.subckt gf180mcu_fd_sc_mcu7t5v0__buf_1 I Z VDD VNW VPW VSS
.ends

* Black-box entry subcircuit for gf180mcu_fd_sc_mcu7t5v0__nor3_1 abstract view
.subckt gf180mcu_fd_sc_mcu7t5v0__nor3_1 A1 A2 A3 ZN VDD VNW VPW VSS
.ends

* Black-box entry subcircuit for gf180mcu_fd_sc_mcu7t5v0__xnor2_1 abstract view
.subckt gf180mcu_fd_sc_mcu7t5v0__xnor2_1 A1 A2 ZN VDD VNW VPW VSS
.ends

* Black-box entry subcircuit for gf180mcu_fd_sc_mcu7t5v0__aoi221_1 abstract view
.subckt gf180mcu_fd_sc_mcu7t5v0__aoi221_1 A1 A2 B1 B2 C ZN VDD VNW VPW VSS
.ends

* Black-box entry subcircuit for gf180mcu_fd_sc_mcu7t5v0__nand4_4 abstract view
.subckt gf180mcu_fd_sc_mcu7t5v0__nand4_4 A1 A2 A3 A4 ZN VDD VNW VPW VSS
.ends

* Black-box entry subcircuit for gf180mcu_fd_sc_mcu7t5v0__aoi22_1 abstract view
.subckt gf180mcu_fd_sc_mcu7t5v0__aoi22_1 A1 A2 B1 B2 ZN VDD VNW VPW VSS
.ends

* Black-box entry subcircuit for gf180mcu_fd_sc_mcu7t5v0__and4_1 abstract view
.subckt gf180mcu_fd_sc_mcu7t5v0__and4_1 A1 A2 A3 A4 Z VDD VNW VPW VSS
.ends

* Black-box entry subcircuit for gf180mcu_fd_sc_mcu7t5v0__and3_1 abstract view
.subckt gf180mcu_fd_sc_mcu7t5v0__and3_1 A1 A2 A3 Z VDD VNW VPW VSS
.ends

* Black-box entry subcircuit for gf180mcu_fd_sc_mcu7t5v0__oai22_1 abstract view
.subckt gf180mcu_fd_sc_mcu7t5v0__oai22_1 A1 A2 B1 B2 ZN VDD VNW VPW VSS
.ends

* Black-box entry subcircuit for gf180mcu_fd_sc_mcu7t5v0__oai211_4 abstract view
.subckt gf180mcu_fd_sc_mcu7t5v0__oai211_4 A1 A2 B C ZN VDD VNW VPW VSS
.ends

* Black-box entry subcircuit for gf180mcu_fd_sc_mcu7t5v0__inv_2 abstract view
.subckt gf180mcu_fd_sc_mcu7t5v0__inv_2 I ZN VDD VNW VPW VSS
.ends

* Black-box entry subcircuit for gf180mcu_fd_sc_mcu7t5v0__nor3_2 abstract view
.subckt gf180mcu_fd_sc_mcu7t5v0__nor3_2 A1 A2 A3 ZN VDD VNW VPW VSS
.ends

.subckt tiny_tonegen VDD VSS address_in[0] address_in[1] address_in[2] clk data_in[0]
+ data_in[1] data_in[2] data_in[3] data_in[4] ena rst_n signal_bit_out write_strobe_in
XFILLER_22_133 VDD VDD VSS VSS gf180mcu_fd_sc_mcu7t5v0__fill_2
XFILLER_13_166 VDD VDD VSS VSS gf180mcu_fd_sc_mcu7t5v0__fillcap_4
XFILLER_6_107 VDD VDD VSS VSS gf180mcu_fd_sc_mcu7t5v0__fill_1
XTAP_TAPCELL_ROW_8_77 VDD VSS gf180mcu_fd_sc_mcu7t5v0__filltie
XTAP_TAPCELL_ROW_20_120 VDD VSS gf180mcu_fd_sc_mcu7t5v0__filltie
XPHY_EDGE_ROW_0_Left_23 VDD VSS gf180mcu_fd_sc_mcu7t5v0__endcap
XFILLER_5_151 VDD VDD VSS VSS gf180mcu_fd_sc_mcu7t5v0__fill_2
X_200_ _260_/Q _259_/Q _202_/S _260_/D VDD VDD VSS VSS gf180mcu_fd_sc_mcu7t5v0__mux2_2
X_131_ _222_/Q _223_/Q _134_/A2 VDD VDD VSS VSS gf180mcu_fd_sc_mcu7t5v0__nand2_1
XFILLER_21_209 VDD VDD VSS VSS gf180mcu_fd_sc_mcu7t5v0__fill_1
XFILLER_15_6 VDD VDD VSS VSS gf180mcu_fd_sc_mcu7t5v0__fill_2
X_114_ _240_/Q _184_/A2 VDD VDD VSS VSS gf180mcu_fd_sc_mcu7t5v0__clkinv_1
XTAP_TAPCELL_ROW_5_67 VDD VSS gf180mcu_fd_sc_mcu7t5v0__filltie
XFILLER_20_65 VDD VDD VSS VSS gf180mcu_fd_sc_mcu7t5v0__fill_2
XFILLER_6_34 VDD VDD VSS VSS gf180mcu_fd_sc_mcu7t5v0__fill_1
XTAP_TAPCELL_ROW_2_57 VDD VSS gf180mcu_fd_sc_mcu7t5v0__filltie
XTAP_TAPCELL_ROW_18_115 VDD VSS gf180mcu_fd_sc_mcu7t5v0__filltie
XFILLER_22_167 VDD VDD VSS VSS gf180mcu_fd_sc_mcu7t5v0__fill_2
XFILLER_13_123 VDD VDD VSS VSS gf180mcu_fd_sc_mcu7t5v0__fill_2
XFILLER_8_193 VDD VDD VSS VSS gf180mcu_fd_sc_mcu7t5v0__fill_2
XFILLER_10_104 VDD VDD VSS VSS gf180mcu_fd_sc_mcu7t5v0__fill_1
XFILLER_10_148 VDD VDD VSS VSS gf180mcu_fd_sc_mcu7t5v0__fillcap_16
XTAP_TAPCELL_ROW_8_78 VDD VSS gf180mcu_fd_sc_mcu7t5v0__filltie
XTAP_TAPCELL_ROW_20_121 VDD VSS gf180mcu_fd_sc_mcu7t5v0__filltie
XFILLER_17_270 VDD VDD VSS VSS gf180mcu_fd_sc_mcu7t5v0__fill_1
X_130_ _219_/Q _220_/Q _221_/Q _134_/A1 VDD VDD VSS VSS gf180mcu_fd_sc_mcu7t5v0__nor3_4
XPHY_EDGE_ROW_21_Right_21 VDD VSS gf180mcu_fd_sc_mcu7t5v0__endcap
XPHY_EDGE_ROW_12_Right_12 VDD VSS gf180mcu_fd_sc_mcu7t5v0__endcap
XFILLER_0_36 VDD VDD VSS VSS gf180mcu_fd_sc_mcu7t5v0__fillcap_32
XFILLER_2_177 VDD VDD VSS VSS gf180mcu_fd_sc_mcu7t5v0__fillcap_64
XFILLER_3_2 VDD VDD VSS VSS gf180mcu_fd_sc_mcu7t5v0__fillcap_64
X_259_ _259_/D _265_/RN _260_/CLK _259_/Q VDD VDD VSS VSS gf180mcu_fd_sc_mcu7t5v0__dffsnq_1
XFILLER_18_87 VDD VDD VSS VSS gf180mcu_fd_sc_mcu7t5v0__fill_2
X_113_ _241_/Q _186_/A2 VDD VDD VSS VSS gf180mcu_fd_sc_mcu7t5v0__clkinv_1
XTAP_TAPCELL_ROW_5_68 VDD VSS gf180mcu_fd_sc_mcu7t5v0__filltie
XFILLER_7_203 VDD VDD VSS VSS gf180mcu_fd_sc_mcu7t5v0__fill_1
XPHY_EDGE_ROW_6_Right_6 VDD VSS gf180mcu_fd_sc_mcu7t5v0__endcap
XFILLER_0_264 VDD VDD VSS VSS gf180mcu_fd_sc_mcu7t5v0__fillcap_4
XTAP_TAPCELL_ROW_2_58 VDD VSS gf180mcu_fd_sc_mcu7t5v0__filltie
XFILLER_22_135 VDD VDD VSS VSS gf180mcu_fd_sc_mcu7t5v0__fill_1
XFILLER_22_146 VDD VDD VSS VSS gf180mcu_fd_sc_mcu7t5v0__fillcap_4
XFILLER_12_34 VDD VDD VSS VSS gf180mcu_fd_sc_mcu7t5v0__fill_1
XTAP_TAPCELL_ROW_20_122 VDD VSS gf180mcu_fd_sc_mcu7t5v0__filltie
XFILLER_5_142 VDD VDD VSS VSS gf180mcu_fd_sc_mcu7t5v0__fill_1
XFILLER_5_153 VDD VDD VSS VSS gf180mcu_fd_sc_mcu7t5v0__fill_1
XTAP_TAPCELL_ROW_8_79 VDD VSS gf180mcu_fd_sc_mcu7t5v0__filltie
XFILLER_14_263 VDD VDD VSS VSS gf180mcu_fd_sc_mcu7t5v0__fillcap_8
XFILLER_2_101 VDD VDD VSS VSS gf180mcu_fd_sc_mcu7t5v0__fillcap_4
XFILLER_20_266 VDD VDD VSS VSS gf180mcu_fd_sc_mcu7t5v0__fillcap_4
X_258_ _258_/D input9/Z _262_/CLK _258_/Q VDD VDD VSS VSS gf180mcu_fd_sc_mcu7t5v0__dffrnq_1
X_189_ _249_/Q _263_/Q _197_/S _249_/D VDD VDD VSS VSS gf180mcu_fd_sc_mcu7t5v0__mux2_2
X_112_ _248_/Q _179_/A2 VDD VDD VSS VSS gf180mcu_fd_sc_mcu7t5v0__inv_1
XTAP_TAPCELL_ROW_5_69 VDD VSS gf180mcu_fd_sc_mcu7t5v0__filltie
XFILLER_15_8 VDD VDD VSS VSS gf180mcu_fd_sc_mcu7t5v0__fill_1
XFILLER_6_270 VDD VDD VSS VSS gf180mcu_fd_sc_mcu7t5v0__fill_1
XFILLER_20_34 VDD VDD VSS VSS gf180mcu_fd_sc_mcu7t5v0__fill_1
XPHY_EDGE_ROW_16_Left_39 VDD VSS gf180mcu_fd_sc_mcu7t5v0__endcap
XTAP_TAPCELL_ROW_2_59 VDD VSS gf180mcu_fd_sc_mcu7t5v0__filltie
XFILLER_16_177 VDD VDD VSS VSS gf180mcu_fd_sc_mcu7t5v0__fillcap_16
XFILLER_22_158 VDD VDD VSS VSS gf180mcu_fd_sc_mcu7t5v0__fill_1
XFILLER_13_158 VDD VDD VSS VSS gf180mcu_fd_sc_mcu7t5v0__fillcap_8
XFILLER_22_169 VDD VDD VSS VSS gf180mcu_fd_sc_mcu7t5v0__fill_1
XFILLER_8_173 VDD VDD VSS VSS gf180mcu_fd_sc_mcu7t5v0__fill_2
XFILLER_8_140 VDD VDD VSS VSS gf180mcu_fd_sc_mcu7t5v0__fillcap_4
XPHY_EDGE_ROW_19_Left_42 VDD VSS gf180mcu_fd_sc_mcu7t5v0__endcap
XFILLER_4_91 VDD VDD VSS VSS gf180mcu_fd_sc_mcu7t5v0__fillcap_8
X_225__24 _225_/D VDD VDD VSS VSS gf180mcu_fd_sc_mcu7t5v0__tiel
XPHY_EDGE_ROW_4_Left_27 VDD VSS gf180mcu_fd_sc_mcu7t5v0__endcap
XFILLER_14_242 VDD VDD VSS VSS gf180mcu_fd_sc_mcu7t5v0__fill_2
X_257_ _257_/D _248_/D _257_/CLK _257_/Q VDD VDD VSS VSS gf180mcu_fd_sc_mcu7t5v0__dffrnq_1
X_188_ _188_/A1 _248_/Q _188_/B _247_/D VDD VDD VSS VSS gf180mcu_fd_sc_mcu7t5v0__aoi21_1
XFILLER_11_223 VDD VDD VSS VSS gf180mcu_fd_sc_mcu7t5v0__fillcap_8
XFILLER_18_34 VDD VDD VSS VSS gf180mcu_fd_sc_mcu7t5v0__fill_1
XFILLER_18_45 VDD VDD VSS VSS gf180mcu_fd_sc_mcu7t5v0__fillcap_4
XFILLER_18_89 VDD VDD VSS VSS gf180mcu_fd_sc_mcu7t5v0__fill_1
XFILLER_11_245 VDD VDD VSS VSS gf180mcu_fd_sc_mcu7t5v0__fillcap_16
X_111_ _242_/Q _188_/A1 VDD VDD VSS VSS gf180mcu_fd_sc_mcu7t5v0__clkinv_1
XPHY_EDGE_ROW_7_Left_30 VDD VSS gf180mcu_fd_sc_mcu7t5v0__endcap
XFILLER_13_6 VDD VDD VSS VSS gf180mcu_fd_sc_mcu7t5v0__fill_1
XFILLER_19_142 VDD VDD VSS VSS gf180mcu_fd_sc_mcu7t5v0__fillcap_4
XFILLER_16_123 VDD VDD VSS VSS gf180mcu_fd_sc_mcu7t5v0__fill_1
XFILLER_22_104 VDD VDD VSS VSS gf180mcu_fd_sc_mcu7t5v0__fillcap_4
XFILLER_17_262 VDD VDD VSS VSS gf180mcu_fd_sc_mcu7t5v0__fillcap_8
XFILLER_5_199 VDD VDD VSS VSS gf180mcu_fd_sc_mcu7t5v0__fillcap_8
XPHY_EDGE_ROW_20_Left_43 VDD VSS gf180mcu_fd_sc_mcu7t5v0__endcap
X_256_ _256_/D _248_/D _262_/CLK _256_/Q VDD VDD VSS VSS gf180mcu_fd_sc_mcu7t5v0__dffsnq_1
X_187_ _247_/Q _248_/Q _248_/D _188_/B VDD VDD VSS VSS gf180mcu_fd_sc_mcu7t5v0__oai21_1
XFILLER_1_2 VDD VDD VSS VSS gf180mcu_fd_sc_mcu7t5v0__fillcap_64
Xclkload0 _265_/CLK clkload0/Z VDD VDD VSS VSS gf180mcu_fd_sc_mcu7t5v0__clkbuf_2
X_239_ _239_/D _257_/CLK _239_/Q VDD VDD VSS VSS gf180mcu_fd_sc_mcu7t5v0__dffq_1
XFILLER_6_16 VDD VDD VSS VSS gf180mcu_fd_sc_mcu7t5v0__fill_1
XTAP_TAPCELL_ROW_6_70 VDD VSS gf180mcu_fd_sc_mcu7t5v0__filltie
XFILLER_15_58 VDD VDD VSS VSS gf180mcu_fd_sc_mcu7t5v0__fillcap_4
XFILLER_0_256 VDD VDD VSS VSS gf180mcu_fd_sc_mcu7t5v0__fillcap_8
XFILLER_16_168 VDD VDD VSS VSS gf180mcu_fd_sc_mcu7t5v0__fillcap_4
XPHY_EDGE_ROW_19_Right_19 VDD VSS gf180mcu_fd_sc_mcu7t5v0__endcap
XFILLER_22_138 VDD VDD VSS VSS gf180mcu_fd_sc_mcu7t5v0__fillcap_8
XTAP_TAPCELL_ROW_3_60 VDD VSS gf180mcu_fd_sc_mcu7t5v0__filltie
XTAP_TAPCELL_ROW_14_100 VDD VSS gf180mcu_fd_sc_mcu7t5v0__filltie
XFILLER_8_153 VDD VDD VSS VSS gf180mcu_fd_sc_mcu7t5v0__fillcap_16
XFILLER_14_244 VDD VDD VSS VSS gf180mcu_fd_sc_mcu7t5v0__fill_1
X_255_ _255_/D _248_/D _262_/CLK _255_/Q VDD VDD VSS VSS gf180mcu_fd_sc_mcu7t5v0__dffsnq_1
X_186_ _248_/Q _186_/A2 _186_/B _246_/D VDD VDD VSS VSS gf180mcu_fd_sc_mcu7t5v0__aoi21_1
XTAP_TAPCELL_ROW_9_81 VDD VSS gf180mcu_fd_sc_mcu7t5v0__filltie
XTAP_TAPCELL_ROW_0_50 VDD VSS gf180mcu_fd_sc_mcu7t5v0__filltie
XFILLER_9_270 VDD VDD VSS VSS gf180mcu_fd_sc_mcu7t5v0__fill_1
XFILLER_11_269 VDD VDD VSS VSS gf180mcu_fd_sc_mcu7t5v0__fill_2
XFILLER_1_72 VDD VDD VSS VSS gf180mcu_fd_sc_mcu7t5v0__fillcap_64
X_238_ _238_/D _213_/A1 _238_/Q VDD VDD VSS VSS gf180mcu_fd_sc_mcu7t5v0__dffq_1
X_169_ _211_/A1 _169_/A2 _169_/B _237_/D VDD VDD VSS VSS gf180mcu_fd_sc_mcu7t5v0__aoi21_1
XFILLER_20_37 VDD VDD VSS VSS gf180mcu_fd_sc_mcu7t5v0__fillcap_16
XFILLER_19_133 VDD VDD VSS VSS gf180mcu_fd_sc_mcu7t5v0__fillcap_4
XFILLER_3_232 VDD VDD VSS VSS gf180mcu_fd_sc_mcu7t5v0__fill_2
XFILLER_3_265 VDD VDD VSS VSS gf180mcu_fd_sc_mcu7t5v0__fillcap_4
XTAP_TAPCELL_ROW_6_71 VDD VSS gf180mcu_fd_sc_mcu7t5v0__filltie
XFILLER_0_268 VDD VDD VSS VSS gf180mcu_fd_sc_mcu7t5v0__fill_2
XFILLER_21_80 VDD VDD VSS VSS gf180mcu_fd_sc_mcu7t5v0__fillcap_4
XFILLER_15_191 VDD VDD VSS VSS gf180mcu_fd_sc_mcu7t5v0__fillcap_8
XTAP_TAPCELL_ROW_3_61 VDD VSS gf180mcu_fd_sc_mcu7t5v0__filltie
XTAP_TAPCELL_ROW_14_101 VDD VSS gf180mcu_fd_sc_mcu7t5v0__filltie
XFILLER_12_16 VDD VDD VSS VSS gf180mcu_fd_sc_mcu7t5v0__fill_2
XFILLER_12_49 VDD VDD VSS VSS gf180mcu_fd_sc_mcu7t5v0__fillcap_4
XFILLER_14_234 VDD VDD VSS VSS gf180mcu_fd_sc_mcu7t5v0__fillcap_8
X_254_ _254_/D _248_/D _269_/CLK _254_/Q VDD VDD VSS VSS gf180mcu_fd_sc_mcu7t5v0__dffsnq_1
X_185_ _248_/Q _246_/Q _248_/D _186_/B VDD VDD VSS VSS gf180mcu_fd_sc_mcu7t5v0__oai21_1
XTAP_TAPCELL_ROW_9_82 VDD VSS gf180mcu_fd_sc_mcu7t5v0__filltie
XTAP_TAPCELL_ROW_0_51 VDD VSS gf180mcu_fd_sc_mcu7t5v0__filltie
XFILLER_18_37 VDD VDD VSS VSS gf180mcu_fd_sc_mcu7t5v0__fillcap_8
X_237_ _237_/D _213_/A1 _237_/Q VDD VDD VSS VSS gf180mcu_fd_sc_mcu7t5v0__dffq_1
X_168_ _211_/B _170_/A2 _169_/B VDD VDD VSS VSS gf180mcu_fd_sc_mcu7t5v0__nand2_1
XFILLER_6_252 VDD VDD VSS VSS gf180mcu_fd_sc_mcu7t5v0__fillcap_16
XFILLER_19_80 VDD VDD VSS VSS gf180mcu_fd_sc_mcu7t5v0__fill_1
XTAP_TAPCELL_ROW_6_72 VDD VSS gf180mcu_fd_sc_mcu7t5v0__filltie
XPHY_EDGE_ROW_1_Right_1 VDD VSS gf180mcu_fd_sc_mcu7t5v0__endcap
XFILLER_22_129 VDD VDD VSS VSS gf180mcu_fd_sc_mcu7t5v0__fillcap_4
XTAP_TAPCELL_ROW_17_110 VDD VSS gf180mcu_fd_sc_mcu7t5v0__filltie
XFILLER_7_72 VDD VDD VSS VSS gf180mcu_fd_sc_mcu7t5v0__fill_2
XTAP_TAPCELL_ROW_3_62 VDD VSS gf180mcu_fd_sc_mcu7t5v0__filltie
XFILLER_8_177 VDD VDD VSS VSS gf180mcu_fd_sc_mcu7t5v0__fillcap_16
XFILLER_8_144 VDD VDD VSS VSS gf180mcu_fd_sc_mcu7t5v0__fill_1
XFILLER_8_111 VDD VDD VSS VSS gf180mcu_fd_sc_mcu7t5v0__fillcap_4
X_253_ _253_/D _218_/I _269_/CLK _253_/Q VDD VDD VSS VSS gf180mcu_fd_sc_mcu7t5v0__dffrnq_1
X_184_ _248_/Q _184_/A2 _184_/B _245_/D VDD VDD VSS VSS gf180mcu_fd_sc_mcu7t5v0__aoi21_1
XTAP_TAPCELL_ROW_9_83 VDD VSS gf180mcu_fd_sc_mcu7t5v0__filltie
XTAP_TAPCELL_ROW_0_52 VDD VSS gf180mcu_fd_sc_mcu7t5v0__filltie
XFILLER_18_49 VDD VDD VSS VSS gf180mcu_fd_sc_mcu7t5v0__fill_2
X_236_ _236_/D _213_/A1 _236_/Q VDD VDD VSS VSS gf180mcu_fd_sc_mcu7t5v0__dffq_1
X_167_ _237_/Q _236_/Q _235_/Q _158_/Z _170_/A2 VDD VDD VSS VSS gf180mcu_fd_sc_mcu7t5v0__nand4_2
XFILLER_3_212 VDD VDD VSS VSS gf180mcu_fd_sc_mcu7t5v0__fillcap_16
XFILLER_19_146 VDD VDD VSS VSS gf180mcu_fd_sc_mcu7t5v0__fill_2
X_219_ _219_/D _211_/B _223_/CLK _219_/Q VDD VDD VSS VSS gf180mcu_fd_sc_mcu7t5v0__dffrnq_1
XTAP_TAPCELL_ROW_6_73 VDD VSS gf180mcu_fd_sc_mcu7t5v0__filltie
XPHY_EDGE_ROW_11_Left_34 VDD VSS gf180mcu_fd_sc_mcu7t5v0__endcap
XFILLER_22_108 VDD VDD VSS VSS gf180mcu_fd_sc_mcu7t5v0__fill_1
Xclkbuf_0_clk clk clkbuf_0_clk/Z VDD VDD VSS VSS gf180mcu_fd_sc_mcu7t5v0__clkbuf_16
XTAP_TAPCELL_ROW_17_111 VDD VSS gf180mcu_fd_sc_mcu7t5v0__filltie
XFILLER_13_119 VDD VDD VSS VSS gf180mcu_fd_sc_mcu7t5v0__fillcap_4
XPHY_EDGE_ROW_15_Right_15 VDD VSS gf180mcu_fd_sc_mcu7t5v0__endcap
XFILLER_12_163 VDD VDD VSS VSS gf180mcu_fd_sc_mcu7t5v0__fillcap_4
XFILLER_8_123 VDD VDD VSS VSS gf180mcu_fd_sc_mcu7t5v0__fill_2
XFILLER_12_18 VDD VDD VSS VSS gf180mcu_fd_sc_mcu7t5v0__fill_1
XFILLER_5_137 VDD VDD VSS VSS gf180mcu_fd_sc_mcu7t5v0__fill_2
XFILLER_2_107 VDD VDD VSS VSS gf180mcu_fd_sc_mcu7t5v0__fillcap_64
XFILLER_14_247 VDD VDD VSS VSS gf180mcu_fd_sc_mcu7t5v0__fillcap_16
X_252_ _252_/D _218_/I _269_/CLK _252_/Q VDD VDD VSS VSS gf180mcu_fd_sc_mcu7t5v0__dffrnq_1
X_183_ _248_/Q _245_/Q _248_/D _184_/B VDD VDD VSS VSS gf180mcu_fd_sc_mcu7t5v0__oai21_1
X_235_ _235_/D _213_/A1 _235_/Q VDD VDD VSS VSS gf180mcu_fd_sc_mcu7t5v0__dffq_2
X_166_ _166_/A1 _166_/A2 _236_/D VDD VDD VSS VSS gf180mcu_fd_sc_mcu7t5v0__nor2_1
XTAP_TAPCELL_ROW_10_84 VDD VSS gf180mcu_fd_sc_mcu7t5v0__filltie
X_218_ _218_/I _269_/RN VDD VDD VSS VSS gf180mcu_fd_sc_mcu7t5v0__clkinv_1
X_149_ _246_/Q _150_/A2 _229_/D VDD VDD VSS VSS gf180mcu_fd_sc_mcu7t5v0__and2_1
XFILLER_11_8 VDD VDD VSS VSS gf180mcu_fd_sc_mcu7t5v0__fillcap_8
XFILLER_21_72 VDD VDD VSS VSS gf180mcu_fd_sc_mcu7t5v0__fillcap_8
XFILLER_7_52 VDD VDD VSS VSS gf180mcu_fd_sc_mcu7t5v0__fillcap_4
XFILLER_21_142 VDD VDD VSS VSS gf180mcu_fd_sc_mcu7t5v0__fill_2
XFILLER_5_105 VDD VDD VSS VSS gf180mcu_fd_sc_mcu7t5v0__fill_2
XFILLER_4_171 VDD VDD VSS VSS gf180mcu_fd_sc_mcu7t5v0__fillcap_4
XFILLER_4_75 VDD VDD VSS VSS gf180mcu_fd_sc_mcu7t5v0__fillcap_16
XTAP_TAPCELL_ROW_13_95 VDD VSS gf180mcu_fd_sc_mcu7t5v0__filltie
XFILLER_22_270 VDD VDD VSS VSS gf180mcu_fd_sc_mcu7t5v0__fill_1
X_251_ _251_/D _218_/I _263_/CLK _251_/Q VDD VDD VSS VSS gf180mcu_fd_sc_mcu7t5v0__dffrnq_1
X_182_ _248_/Q _182_/A2 _182_/B _244_/D VDD VDD VSS VSS gf180mcu_fd_sc_mcu7t5v0__aoi21_1
XFILLER_13_270 VDD VDD VSS VSS gf180mcu_fd_sc_mcu7t5v0__fill_1
X_234_ _234_/D _260_/CLK _234_/Q VDD VDD VSS VSS gf180mcu_fd_sc_mcu7t5v0__dffq_1
X_165_ _211_/B _169_/A2 _166_/A2 VDD VDD VSS VSS gf180mcu_fd_sc_mcu7t5v0__nand2_1
XTAP_TAPCELL_ROW_10_85 VDD VSS gf180mcu_fd_sc_mcu7t5v0__filltie
XFILLER_19_137 VDD VDD VSS VSS gf180mcu_fd_sc_mcu7t5v0__fill_2
XFILLER_19_72 VDD VDD VSS VSS gf180mcu_fd_sc_mcu7t5v0__fillcap_8
XFILLER_3_269 VDD VDD VSS VSS gf180mcu_fd_sc_mcu7t5v0__fill_2
X_217_ _218_/I _268_/RN VDD VDD VSS VSS gf180mcu_fd_sc_mcu7t5v0__clkinv_1
X_148_ _245_/Q _150_/A2 _228_/D VDD VDD VSS VSS gf180mcu_fd_sc_mcu7t5v0__and2_1
XFILLER_0_206 VDD VDD VSS VSS gf180mcu_fd_sc_mcu7t5v0__fillcap_32
XFILLER_18_181 VDD VDD VSS VSS gf180mcu_fd_sc_mcu7t5v0__fill_1
XFILLER_18_2 VDD VDD VSS VSS gf180mcu_fd_sc_mcu7t5v0__fillcap_32
XFILLER_16_107 VDD VDD VSS VSS gf180mcu_fd_sc_mcu7t5v0__fillcap_16
XFILLER_21_84 VDD VDD VSS VSS gf180mcu_fd_sc_mcu7t5v0__fill_2
XFILLER_15_184 VDD VDD VSS VSS gf180mcu_fd_sc_mcu7t5v0__fill_1
XPHY_EDGE_ROW_5_Right_5 VDD VSS gf180mcu_fd_sc_mcu7t5v0__endcap
XFILLER_8_169 VDD VDD VSS VSS gf180mcu_fd_sc_mcu7t5v0__fillcap_4
XFILLER_8_125 VDD VDD VSS VSS gf180mcu_fd_sc_mcu7t5v0__fill_1
XFILLER_8_103 VDD VDD VSS VSS gf180mcu_fd_sc_mcu7t5v0__fill_2
XTAP_TAPCELL_ROW_20_119 VDD VSS gf180mcu_fd_sc_mcu7t5v0__filltie
XFILLER_7_191 VDD VDD VSS VSS gf180mcu_fd_sc_mcu7t5v0__fill_1
XFILLER_17_246 VDD VDD VSS VSS gf180mcu_fd_sc_mcu7t5v0__fillcap_16
XFILLER_5_139 VDD VDD VSS VSS gf180mcu_fd_sc_mcu7t5v0__fill_1
XFILLER_4_10 VDD VDD VSS VSS gf180mcu_fd_sc_mcu7t5v0__fillcap_4
XFILLER_4_32 VDD VDD VSS VSS gf180mcu_fd_sc_mcu7t5v0__fill_2
XFILLER_4_43 VDD VDD VSS VSS gf180mcu_fd_sc_mcu7t5v0__fillcap_32
XFILLER_13_41 VDD VDD VSS VSS gf180mcu_fd_sc_mcu7t5v0__fillcap_16
XFILLER_1_142 VDD VDD VSS VSS gf180mcu_fd_sc_mcu7t5v0__fillcap_64
X_250_ _250_/D _218_/I _269_/CLK _250_/Q VDD VDD VSS VSS gf180mcu_fd_sc_mcu7t5v0__dffrnq_1
Xfanout20 input9/Z _248_/D VDD VDD VSS VSS gf180mcu_fd_sc_mcu7t5v0__buf_2
X_181_ _248_/Q _244_/Q _248_/D _182_/B VDD VDD VSS VSS gf180mcu_fd_sc_mcu7t5v0__oai21_1
XTAP_TAPCELL_ROW_13_96 VDD VSS gf180mcu_fd_sc_mcu7t5v0__filltie
XFILLER_10_263 VDD VDD VSS VSS gf180mcu_fd_sc_mcu7t5v0__fillcap_8
XFILLER_1_66 VDD VDD VSS VSS gf180mcu_fd_sc_mcu7t5v0__fillcap_4
X_233_ _233_/D _260_/CLK _233_/Q VDD VDD VSS VSS gf180mcu_fd_sc_mcu7t5v0__dffq_1
X_164_ _236_/Q _235_/Q _158_/Z _169_/A2 VDD VDD VSS VSS gf180mcu_fd_sc_mcu7t5v0__nand3_1
XFILLER_6_201 VDD VDD VSS VSS gf180mcu_fd_sc_mcu7t5v0__fillcap_4
XTAP_TAPCELL_ROW_10_86 VDD VSS gf180mcu_fd_sc_mcu7t5v0__filltie
X_216_ _218_/I _216_/ZN VDD VDD VSS VSS gf180mcu_fd_sc_mcu7t5v0__clkinv_1
X_147_ _244_/Q _150_/A2 _227_/D VDD VDD VSS VSS gf180mcu_fd_sc_mcu7t5v0__and2_1
XPHY_EDGE_ROW_15_Left_38 VDD VSS gf180mcu_fd_sc_mcu7t5v0__endcap
XFILLER_21_144 VDD VDD VSS VSS gf180mcu_fd_sc_mcu7t5v0__fill_1
XFILLER_12_155 VDD VDD VSS VSS gf180mcu_fd_sc_mcu7t5v0__fillcap_8
XPHY_EDGE_ROW_20_Right_20 VDD VSS gf180mcu_fd_sc_mcu7t5v0__endcap
XPHY_EDGE_ROW_11_Right_11 VDD VSS gf180mcu_fd_sc_mcu7t5v0__endcap
XFILLER_5_107 VDD VDD VSS VSS gf180mcu_fd_sc_mcu7t5v0__fill_1
XFILLER_4_99 VDD VDD VSS VSS gf180mcu_fd_sc_mcu7t5v0__fillcap_4
Xfanout21 _265_/RN _211_/B VDD VDD VSS VSS gf180mcu_fd_sc_mcu7t5v0__clkbuf_3
X_180_ _180_/A1 _180_/A2 _242_/D VDD VDD VSS VSS gf180mcu_fd_sc_mcu7t5v0__nor2_1
XTAP_TAPCELL_ROW_13_97 VDD VSS gf180mcu_fd_sc_mcu7t5v0__filltie
XPHY_EDGE_ROW_18_Left_41 VDD VSS gf180mcu_fd_sc_mcu7t5v0__endcap
XFILLER_9_221 VDD VDD VSS VSS gf180mcu_fd_sc_mcu7t5v0__fill_2
XPHY_EDGE_ROW_3_Left_26 VDD VSS gf180mcu_fd_sc_mcu7t5v0__endcap
X_232_ _232_/D _260_/CLK _232_/Q VDD VDD VSS VSS gf180mcu_fd_sc_mcu7t5v0__dffq_1
X_163_ _235_/Q _158_/Z _236_/Q _166_/A1 VDD VDD VSS VSS gf180mcu_fd_sc_mcu7t5v0__aoi21_1
XFILLER_6_268 VDD VDD VSS VSS gf180mcu_fd_sc_mcu7t5v0__fill_2
XTAP_TAPCELL_ROW_10_87 VDD VSS gf180mcu_fd_sc_mcu7t5v0__filltie
XFILLER_19_117 VDD VDD VSS VSS gf180mcu_fd_sc_mcu7t5v0__fill_1
XFILLER_19_139 VDD VDD VSS VSS gf180mcu_fd_sc_mcu7t5v0__fill_1
XFILLER_18_172 VDD VDD VSS VSS gf180mcu_fd_sc_mcu7t5v0__fill_2
X_215_ _218_/I _215_/ZN VDD VDD VSS VSS gf180mcu_fd_sc_mcu7t5v0__clkinv_1
X_146_ _179_/A2 _180_/A1 _150_/A2 VDD VDD VSS VSS gf180mcu_fd_sc_mcu7t5v0__nor2_1
X_129_ input4/Z _197_/S _129_/S _243_/D VDD VDD VSS VSS gf180mcu_fd_sc_mcu7t5v0__mux2_2
XFILLER_12_167 VDD VDD VSS VSS gf180mcu_fd_sc_mcu7t5v0__fill_2
XFILLER_16_53 VDD VDD VSS VSS gf180mcu_fd_sc_mcu7t5v0__fillcap_4
XFILLER_16_97 VDD VDD VSS VSS gf180mcu_fd_sc_mcu7t5v0__fillcap_8
XFILLER_4_34 VDD VDD VSS VSS gf180mcu_fd_sc_mcu7t5v0__fill_1
Xfanout11 _243_/Q _197_/S VDD VDD VSS VSS gf180mcu_fd_sc_mcu7t5v0__buf_4
Xfanout22 input9/Z _265_/RN VDD VDD VSS VSS gf180mcu_fd_sc_mcu7t5v0__clkbuf_3
XFILLER_13_65 VDD VDD VSS VSS gf180mcu_fd_sc_mcu7t5v0__fillcap_4
XFILLER_13_87 VDD VDD VSS VSS gf180mcu_fd_sc_mcu7t5v0__fillcap_32
XTAP_TAPCELL_ROW_0_46 VDD VSS gf180mcu_fd_sc_mcu7t5v0__filltie
XFILLER_9_266 VDD VDD VSS VSS gf180mcu_fd_sc_mcu7t5v0__fillcap_4
XFILLER_10_243 VDD VDD VSS VSS gf180mcu_fd_sc_mcu7t5v0__fill_2
X_231_ _231_/D _260_/CLK _231_/Q VDD VDD VSS VSS gf180mcu_fd_sc_mcu7t5v0__dffq_1
X_162_ _235_/Q _158_/Z _162_/B _235_/D VDD VDD VSS VSS gf180mcu_fd_sc_mcu7t5v0__aoi21_1
XFILLER_19_42 VDD VDD VSS VSS gf180mcu_fd_sc_mcu7t5v0__fillcap_4
XFILLER_3_206 VDD VDD VSS VSS gf180mcu_fd_sc_mcu7t5v0__fillcap_4
XFILLER_3_228 VDD VDD VSS VSS gf180mcu_fd_sc_mcu7t5v0__fillcap_4
Xinput1 address_in[0] _118_/I VDD VDD VSS VSS gf180mcu_fd_sc_mcu7t5v0__clkbuf_1
X_214_ _134_/C _213_/Z _265_/D VDD VDD VSS VSS gf180mcu_fd_sc_mcu7t5v0__and2_1
X_145_ _145_/A1 _144_/Z _223_/D VDD VDD VSS VSS gf180mcu_fd_sc_mcu7t5v0__nor2_1
XFILLER_15_176 VDD VDD VSS VSS gf180mcu_fd_sc_mcu7t5v0__fillcap_8
XFILLER_16_2 VDD VDD VSS VSS gf180mcu_fd_sc_mcu7t5v0__fillcap_32
XFILLER_21_157 VDD VDD VSS VSS gf180mcu_fd_sc_mcu7t5v0__fill_2
X_128_ input3/Z _128_/A2 _118_/I _128_/A4 _129_/S VDD VDD VSS VSS gf180mcu_fd_sc_mcu7t5v0__nand4_2
XFILLER_7_56 VDD VDD VSS VSS gf180mcu_fd_sc_mcu7t5v0__fill_2
XFILLER_12_102 VDD VDD VSS VSS gf180mcu_fd_sc_mcu7t5v0__fill_2
XTAP_TAPCELL_ROW_22_130 VDD VSS gf180mcu_fd_sc_mcu7t5v0__filltie
XPHY_EDGE_ROW_9_Right_9 VDD VSS gf180mcu_fd_sc_mcu7t5v0__endcap
Xfanout12 _243_/Q _202_/S VDD VDD VSS VSS gf180mcu_fd_sc_mcu7t5v0__clkbuf_3
XTAP_TAPCELL_ROW_0_47 VDD VSS gf180mcu_fd_sc_mcu7t5v0__filltie
X_230_ _230_/D _260_/CLK _230_/Q VDD VDD VSS VSS gf180mcu_fd_sc_mcu7t5v0__dffq_1
X_161_ _235_/Q _158_/Z _211_/B _162_/B VDD VDD VSS VSS gf180mcu_fd_sc_mcu7t5v0__oai21_1
Xinput2 address_in[1] _117_/I VDD VDD VSS VSS gf180mcu_fd_sc_mcu7t5v0__clkbuf_1
X_213_ _213_/A1 _213_/A2 _213_/Z VDD VDD VSS VSS gf180mcu_fd_sc_mcu7t5v0__xor2_1
X_144_ _223_/Q _144_/A2 _144_/Z VDD VDD VSS VSS gf180mcu_fd_sc_mcu7t5v0__xor2_1
XFILLER_18_174 VDD VDD VSS VSS gf180mcu_fd_sc_mcu7t5v0__fill_1
XFILLER_21_66 VDD VDD VSS VSS gf180mcu_fd_sc_mcu7t5v0__fillcap_4
XFILLER_15_199 VDD VDD VSS VSS gf180mcu_fd_sc_mcu7t5v0__fillcap_4
X_127_ input4/Z _266_/Q _127_/S _266_/D VDD VDD VSS VSS gf180mcu_fd_sc_mcu7t5v0__mux2_2
XFILLER_21_136 VDD VDD VSS VSS gf180mcu_fd_sc_mcu7t5v0__fillcap_4
XTAP_TAPCELL_ROW_22_131 VDD VSS gf180mcu_fd_sc_mcu7t5v0__filltie
XFILLER_4_14 VDD VDD VSS VSS gf180mcu_fd_sc_mcu7t5v0__fill_2
Xfanout13 _263_/CLK _269_/CLK VDD VDD VSS VSS gf180mcu_fd_sc_mcu7t5v0__buf_2
XTAP_TAPCELL_ROW_0_48 VDD VSS gf180mcu_fd_sc_mcu7t5v0__filltie
X_160_ _180_/A1 _159_/Z _234_/D VDD VDD VSS VSS gf180mcu_fd_sc_mcu7t5v0__nor2_1
XFILLER_6_205 VDD VDD VSS VSS gf180mcu_fd_sc_mcu7t5v0__fill_2
Xinput3 address_in[2] input3/Z VDD VDD VSS VSS gf180mcu_fd_sc_mcu7t5v0__buf_1
XPHY_EDGE_ROW_18_Right_18 VDD VSS gf180mcu_fd_sc_mcu7t5v0__endcap
X_212_ _238_/Q _212_/A2 _212_/A3 _264_/D VDD VDD VSS VSS gf180mcu_fd_sc_mcu7t5v0__nor3_1
X_143_ _145_/A1 _143_/A2 _222_/D VDD VDD VSS VSS gf180mcu_fd_sc_mcu7t5v0__nor2_1
XFILLER_2_241 VDD VDD VSS VSS gf180mcu_fd_sc_mcu7t5v0__fillcap_4
XFILLER_2_263 VDD VDD VSS VSS gf180mcu_fd_sc_mcu7t5v0__fillcap_8
X_126_ input5/Z _267_/Q _127_/S _267_/D VDD VDD VSS VSS gf180mcu_fd_sc_mcu7t5v0__mux2_2
XFILLER_16_34 VDD VDD VSS VSS gf180mcu_fd_sc_mcu7t5v0__fill_1
XFILLER_12_104 VDD VDD VSS VSS gf180mcu_fd_sc_mcu7t5v0__fill_1
XTAP_TAPCELL_ROW_22_132 VDD VSS gf180mcu_fd_sc_mcu7t5v0__filltie
XPHY_EDGE_ROW_0_Right_0 VDD VSS gf180mcu_fd_sc_mcu7t5v0__endcap
XFILLER_21_2 VDD VDD VSS VSS gf180mcu_fd_sc_mcu7t5v0__fillcap_64
XFILLER_7_196 VDD VDD VSS VSS gf180mcu_fd_sc_mcu7t5v0__fill_1
XFILLER_4_177 VDD VDD VSS VSS gf180mcu_fd_sc_mcu7t5v0__fillcap_64
XFILLER_4_37 VDD VDD VSS VSS gf180mcu_fd_sc_mcu7t5v0__fill_2
XFILLER_13_57 VDD VDD VSS VSS gf180mcu_fd_sc_mcu7t5v0__fillcap_8
XFILLER_1_136 VDD VDD VSS VSS gf180mcu_fd_sc_mcu7t5v0__fillcap_4
X_224__25 _224_/D VDD VDD VSS VSS gf180mcu_fd_sc_mcu7t5v0__tiel
Xfanout14 _263_/CLK _257_/CLK VDD VDD VSS VSS gf180mcu_fd_sc_mcu7t5v0__buf_2
XTAP_TAPCELL_ROW_0_49 VDD VSS gf180mcu_fd_sc_mcu7t5v0__filltie
XFILLER_13_254 VDD VDD VSS VSS gf180mcu_fd_sc_mcu7t5v0__fillcap_16
XFILLER_9_258 VDD VDD VSS VSS gf180mcu_fd_sc_mcu7t5v0__fillcap_8
Xinput4 data_in[0] input4/Z VDD VDD VSS VSS gf180mcu_fd_sc_mcu7t5v0__clkbuf_1
XFILLER_10_69 VDD VDD VSS VSS gf180mcu_fd_sc_mcu7t5v0__fill_2
XFILLER_19_34 VDD VDD VSS VSS gf180mcu_fd_sc_mcu7t5v0__fillcap_8
X_211_ _211_/A1 _230_/Q _211_/B _212_/A3 VDD VDD VSS VSS gf180mcu_fd_sc_mcu7t5v0__oai21_1
X_142_ _222_/Q _138_/Z _143_/A2 VDD VDD VSS VSS gf180mcu_fd_sc_mcu7t5v0__xnor2_1
X_125_ input6/Z _268_/Q _127_/S _268_/D VDD VDD VSS VSS gf180mcu_fd_sc_mcu7t5v0__mux2_2
XTAP_TAPCELL_ROW_11_90 VDD VSS gf180mcu_fd_sc_mcu7t5v0__filltie
XFILLER_21_149 VDD VDD VSS VSS gf180mcu_fd_sc_mcu7t5v0__fillcap_8
XPHY_EDGE_ROW_10_Left_33 VDD VSS gf180mcu_fd_sc_mcu7t5v0__endcap
XFILLER_16_57 VDD VDD VSS VSS gf180mcu_fd_sc_mcu7t5v0__fill_2
XFILLER_14_2 VDD VDD VSS VSS gf180mcu_fd_sc_mcu7t5v0__fillcap_16
XFILLER_7_142 VDD VDD VSS VSS gf180mcu_fd_sc_mcu7t5v0__fillcap_16
XFILLER_7_120 VDD VDD VSS VSS gf180mcu_fd_sc_mcu7t5v0__fillcap_4
XFILLER_16_263 VDD VDD VSS VSS gf180mcu_fd_sc_mcu7t5v0__fillcap_8
XFILLER_4_16 VDD VDD VSS VSS gf180mcu_fd_sc_mcu7t5v0__fill_1
XFILLER_13_69 VDD VDD VSS VSS gf180mcu_fd_sc_mcu7t5v0__fill_1
XFILLER_22_222 VDD VDD VSS VSS gf180mcu_fd_sc_mcu7t5v0__fill_2
XFILLER_22_266 VDD VDD VSS VSS gf180mcu_fd_sc_mcu7t5v0__fillcap_4
Xfanout15 _263_/CLK _262_/CLK VDD VDD VSS VSS gf180mcu_fd_sc_mcu7t5v0__clkbuf_1
XFILLER_10_247 VDD VDD VSS VSS gf180mcu_fd_sc_mcu7t5v0__fillcap_16
XFILLER_6_207 VDD VDD VSS VSS gf180mcu_fd_sc_mcu7t5v0__fill_1
Xinput5 data_in[1] input5/Z VDD VDD VSS VSS gf180mcu_fd_sc_mcu7t5v0__clkbuf_1
XFILLER_19_46 VDD VDD VSS VSS gf180mcu_fd_sc_mcu7t5v0__fill_1