* NGSPICE file created from tiny_tonegen.ext - technology: gf180mcuD

* Black-box entry subcircuit for gf180mcu_fd_sc_mcu7t5v0__fillcap_4 abstract view
.subckt gf180mcu_fd_sc_mcu7t5v0__fillcap_4 VDD VNW VPW VSS
.ends

* Black-box entry subcircuit for gf180mcu_fd_sc_mcu7t5v0__filltie abstract view
.subckt gf180mcu_fd_sc_mcu7t5v0__filltie VDD VSS
.ends

* Black-box entry subcircuit for gf180mcu_fd_sc_mcu7t5v0__nor2_1 abstract view
.subckt gf180mcu_fd_sc_mcu7t5v0__nor2_1 A1 A2 ZN VDD VNW VPW VSS
.ends

* Black-box entry subcircuit for gf180mcu_fd_sc_mcu7t5v0__fill_1 abstract view
.subckt gf180mcu_fd_sc_mcu7t5v0__fill_1 VDD VNW VPW VSS
.ends

* Black-box entry subcircuit for gf180mcu_fd_sc_mcu7t5v0__fill_2 abstract view
.subckt gf180mcu_fd_sc_mcu7t5v0__fill_2 VDD VNW VPW VSS
.ends

* Black-box entry subcircuit for gf180mcu_fd_sc_mcu7t5v0__nand2_1 abstract view
.subckt gf180mcu_fd_sc_mcu7t5v0__nand2_1 A1 A2 ZN VDD VNW VPW VSS
.ends

* Black-box entry subcircuit for gf180mcu_fd_sc_mcu7t5v0__xor2_1 abstract view
.subckt gf180mcu_fd_sc_mcu7t5v0__xor2_1 A1 A2 Z VDD VNW VPW VSS
.ends

* Black-box entry subcircuit for gf180mcu_fd_sc_mcu7t5v0__fillcap_8 abstract view
.subckt gf180mcu_fd_sc_mcu7t5v0__fillcap_8 VDD VNW VPW VSS
.ends

* Black-box entry subcircuit for gf180mcu_fd_sc_mcu7t5v0__mux2_2 abstract view
.subckt gf180mcu_fd_sc_mcu7t5v0__mux2_2 I0 I1 S Z VDD VNW VPW VSS
.ends

* Black-box entry subcircuit for gf180mcu_fd_sc_mcu7t5v0__clkinv_1 abstract view
.subckt gf180mcu_fd_sc_mcu7t5v0__clkinv_1 I ZN VDD VNW VPW VSS
.ends

* Black-box entry subcircuit for gf180mcu_fd_sc_mcu7t5v0__dffq_2 abstract view
.subckt gf180mcu_fd_sc_mcu7t5v0__dffq_2 D CLK Q VDD VNW VPW VSS
.ends

* Black-box entry subcircuit for gf180mcu_fd_sc_mcu7t5v0__fillcap_16 abstract view
.subckt gf180mcu_fd_sc_mcu7t5v0__fillcap_16 VDD VNW VPW VSS
.ends

* Black-box entry subcircuit for gf180mcu_fd_sc_mcu7t5v0__aoi21_1 abstract view
.subckt gf180mcu_fd_sc_mcu7t5v0__aoi21_1 A1 A2 B ZN VDD VNW VPW VSS
.ends

* Black-box entry subcircuit for gf180mcu_fd_sc_mcu7t5v0__dffq_1 abstract view
.subckt gf180mcu_fd_sc_mcu7t5v0__dffq_1 D CLK Q VDD VNW VPW VSS
.ends

* Black-box entry subcircuit for gf180mcu_fd_sc_mcu7t5v0__fillcap_32 abstract view
.subckt gf180mcu_fd_sc_mcu7t5v0__fillcap_32 VDD VNW VPW VSS
.ends

* Black-box entry subcircuit for gf180mcu_fd_sc_mcu7t5v0__dffrnq_1 abstract view
.subckt gf180mcu_fd_sc_mcu7t5v0__dffrnq_1 D RN CLK Q VDD VNW VPW VSS
.ends

* Black-box entry subcircuit for gf180mcu_fd_sc_mcu7t5v0__xnor2_1 abstract view
.subckt gf180mcu_fd_sc_mcu7t5v0__xnor2_1 A1 A2 ZN VDD VNW VPW VSS
.ends

* Black-box entry subcircuit for gf180mcu_fd_sc_mcu7t5v0__nand3_1 abstract view
.subckt gf180mcu_fd_sc_mcu7t5v0__nand3_1 A1 A2 A3 ZN VDD VNW VPW VSS
.ends

* Black-box entry subcircuit for gf180mcu_fd_sc_mcu7t5v0__and2_1 abstract view
.subckt gf180mcu_fd_sc_mcu7t5v0__and2_1 A1 A2 Z VDD VNW VPW VSS
.ends

* Black-box entry subcircuit for gf180mcu_fd_sc_mcu7t5v0__endcap abstract view
.subckt gf180mcu_fd_sc_mcu7t5v0__endcap VDD VSS
.ends

* Black-box entry subcircuit for gf180mcu_fd_sc_mcu7t5v0__oai21_1 abstract view
.subckt gf180mcu_fd_sc_mcu7t5v0__oai21_1 A1 A2 B ZN VDD VNW VPW VSS
.ends

* Black-box entry subcircuit for gf180mcu_fd_sc_mcu7t5v0__nor3_1 abstract view
.subckt gf180mcu_fd_sc_mcu7t5v0__nor3_1 A1 A2 A3 ZN VDD VNW VPW VSS
.ends

* Black-box entry subcircuit for gf180mcu_fd_sc_mcu7t5v0__nand4_4 abstract view
.subckt gf180mcu_fd_sc_mcu7t5v0__nand4_4 A1 A2 A3 A4 ZN VDD VNW VPW VSS
.ends

* Black-box entry subcircuit for gf180mcu_fd_sc_mcu7t5v0__fillcap_64 abstract view
.subckt gf180mcu_fd_sc_mcu7t5v0__fillcap_64 VDD VNW VPW VSS
.ends

* Black-box entry subcircuit for gf180mcu_fd_sc_mcu7t5v0__dffsnq_1 abstract view
.subckt gf180mcu_fd_sc_mcu7t5v0__dffsnq_1 D SETN CLK Q VDD VNW VPW VSS
.ends

* Black-box entry subcircuit for gf180mcu_fd_sc_mcu7t5v0__aoi22_1 abstract view
.subckt gf180mcu_fd_sc_mcu7t5v0__aoi22_1 A1 A2 B1 B2 ZN VDD VNW VPW VSS
.ends

* Black-box entry subcircuit for gf180mcu_fd_sc_mcu7t5v0__inv_2 abstract view
.subckt gf180mcu_fd_sc_mcu7t5v0__inv_2 I ZN VDD VNW VPW VSS
.ends

* Black-box entry subcircuit for gf180mcu_fd_sc_mcu7t5v0__oai22_1 abstract view
.subckt gf180mcu_fd_sc_mcu7t5v0__oai22_1 A1 A2 B1 B2 ZN VDD VNW VPW VSS
.ends

* Black-box entry subcircuit for gf180mcu_fd_sc_mcu7t5v0__clkinv_2 abstract view
.subckt gf180mcu_fd_sc_mcu7t5v0__clkinv_2 I ZN VDD VNW VPW VSS
.ends

* Black-box entry subcircuit for gf180mcu_fd_sc_mcu7t5v0__or4_1 abstract view
.subckt gf180mcu_fd_sc_mcu7t5v0__or4_1 A1 A2 A3 A4 Z VDD VNW VPW VSS
.ends

* Black-box entry subcircuit for gf180mcu_fd_sc_mcu7t5v0__clkbuf_16 abstract view
.subckt gf180mcu_fd_sc_mcu7t5v0__clkbuf_16 I Z VDD VNW VPW VSS
.ends

* Black-box entry subcircuit for gf180mcu_fd_sc_mcu7t5v0__aoi211_1 abstract view
.subckt gf180mcu_fd_sc_mcu7t5v0__aoi211_1 A1 A2 B C ZN VDD VNW VPW VSS
.ends

* Black-box entry subcircuit for gf180mcu_fd_sc_mcu7t5v0__and4_1 abstract view
.subckt gf180mcu_fd_sc_mcu7t5v0__and4_1 A1 A2 A3 A4 Z VDD VNW VPW VSS
.ends

* Black-box entry subcircuit for gf180mcu_fd_sc_mcu7t5v0__buf_2 abstract view
.subckt gf180mcu_fd_sc_mcu7t5v0__buf_2 I Z VDD VNW VPW VSS
.ends

* Black-box entry subcircuit for gf180mcu_fd_sc_mcu7t5v0__or2_1 abstract view
.subckt gf180mcu_fd_sc_mcu7t5v0__or2_1 A1 A2 Z VDD VNW VPW VSS
.ends

* Black-box entry subcircuit for gf180mcu_fd_sc_mcu7t5v0__clkbuf_4 abstract view
.subckt gf180mcu_fd_sc_mcu7t5v0__clkbuf_4 I Z VDD VNW VPW VSS
.ends

* Black-box entry subcircuit for gf180mcu_fd_sc_mcu7t5v0__nand2_2 abstract view
.subckt gf180mcu_fd_sc_mcu7t5v0__nand2_2 A1 A2 ZN VDD VNW VPW VSS
.ends

* Black-box entry subcircuit for gf180mcu_fd_sc_mcu7t5v0__tiel abstract view
.subckt gf180mcu_fd_sc_mcu7t5v0__tiel ZN VDD VNW VPW VSS
.ends

* Black-box entry subcircuit for gf180mcu_fd_sc_mcu7t5v0__clkbuf_2 abstract view
.subckt gf180mcu_fd_sc_mcu7t5v0__clkbuf_2 I Z VDD VNW VPW VSS
.ends

* Black-box entry subcircuit for gf180mcu_fd_sc_mcu7t5v0__oai211_2 abstract view
.subckt gf180mcu_fd_sc_mcu7t5v0__oai211_2 A1 A2 B C ZN VDD VNW VPW VSS
.ends

* Black-box entry subcircuit for gf180mcu_fd_sc_mcu7t5v0__buf_1 abstract view
.subckt gf180mcu_fd_sc_mcu7t5v0__buf_1 I Z VDD VNW VPW VSS
.ends

* Black-box entry subcircuit for gf180mcu_fd_sc_mcu7t5v0__or3_1 abstract view
.subckt gf180mcu_fd_sc_mcu7t5v0__or3_1 A1 A2 A3 Z VDD VNW VPW VSS
.ends

* Black-box entry subcircuit for gf180mcu_fd_sc_mcu7t5v0__clkbuf_1 abstract view
.subckt gf180mcu_fd_sc_mcu7t5v0__clkbuf_1 I Z VDD VNW VPW VSS
.ends

* Black-box entry subcircuit for gf180mcu_fd_sc_mcu7t5v0__oai31_1 abstract view
.subckt gf180mcu_fd_sc_mcu7t5v0__oai31_1 A1 A2 A3 B ZN VDD VNW VPW VSS
.ends

* Black-box entry subcircuit for gf180mcu_fd_sc_mcu7t5v0__aoi221_1 abstract view
.subckt gf180mcu_fd_sc_mcu7t5v0__aoi221_1 A1 A2 B1 B2 C ZN VDD VNW VPW VSS
.ends

* Black-box entry subcircuit for gf180mcu_fd_sc_mcu7t5v0__nand4_1 abstract view
.subckt gf180mcu_fd_sc_mcu7t5v0__nand4_1 A1 A2 A3 A4 ZN VDD VNW VPW VSS
.ends

* Black-box entry subcircuit for gf180mcu_fd_sc_mcu7t5v0__aoi222_1 abstract view
.subckt gf180mcu_fd_sc_mcu7t5v0__aoi222_1 A1 A2 B1 B2 C1 C2 ZN VDD VNW VPW VSS
.ends

* Black-box entry subcircuit for gf180mcu_fd_sc_mcu7t5v0__oai21_2 abstract view
.subckt gf180mcu_fd_sc_mcu7t5v0__oai21_2 A1 A2 B ZN VDD VNW VPW VSS
.ends

* Black-box entry subcircuit for gf180mcu_fd_sc_mcu7t5v0__oai221_1 abstract view
.subckt gf180mcu_fd_sc_mcu7t5v0__oai221_1 A1 A2 B1 B2 C ZN VDD VNW VPW VSS
.ends

* Black-box entry subcircuit for gf180mcu_fd_sc_mcu7t5v0__clkbuf_3 abstract view
.subckt gf180mcu_fd_sc_mcu7t5v0__clkbuf_3 I Z VDD VNW VPW VSS
.ends

* Black-box entry subcircuit for gf180mcu_fd_sc_mcu7t5v0__nor2_2 abstract view
.subckt gf180mcu_fd_sc_mcu7t5v0__nor2_2 A1 A2 ZN VDD VNW VPW VSS
.ends

* Black-box entry subcircuit for gf180mcu_fd_sc_mcu7t5v0__nand3_4 abstract view
.subckt gf180mcu_fd_sc_mcu7t5v0__nand3_4 A1 A2 A3 ZN VDD VNW VPW VSS
.ends

* Black-box entry subcircuit for gf180mcu_fd_sc_mcu7t5v0__nand4_2 abstract view
.subckt gf180mcu_fd_sc_mcu7t5v0__nand4_2 A1 A2 A3 A4 ZN VDD VNW VPW VSS
.ends

* Black-box entry subcircuit for gf180mcu_fd_sc_mcu7t5v0__and2_2 abstract view
.subckt gf180mcu_fd_sc_mcu7t5v0__and2_2 A1 A2 Z VDD VNW VPW VSS
.ends

* Black-box entry subcircuit for gf180mcu_fd_sc_mcu7t5v0__and3_1 abstract view
.subckt gf180mcu_fd_sc_mcu7t5v0__and3_1 A1 A2 A3 Z VDD VNW VPW VSS
.ends

* Black-box entry subcircuit for gf180mcu_fd_sc_mcu7t5v0__nand3_2 abstract view
.subckt gf180mcu_fd_sc_mcu7t5v0__nand3_2 A1 A2 A3 ZN VDD VNW VPW VSS
.ends

* Black-box entry subcircuit for gf180mcu_fd_sc_mcu7t5v0__xor3_1 abstract view
.subckt gf180mcu_fd_sc_mcu7t5v0__xor3_1 A1 A2 A3 Z VDD VNW VPW VSS
.ends

* Black-box entry subcircuit for gf180mcu_fd_sc_mcu7t5v0__nor4_1 abstract view
.subckt gf180mcu_fd_sc_mcu7t5v0__nor4_1 A1 A2 A3 A4 ZN VDD VNW VPW VSS
.ends

.subckt tiny_tonegen VDD VSS address_in[0] address_in[1] address_in[2] clk data_in[0]
+ data_in[1] data_in[2] data_in[3] data_in[4] ena rst_n signal_bit_out write_strobe_in
XFILLER_10_339 VDD VDD VSS VSS gf180mcu_fd_sc_mcu7t5v0__fillcap_4
XTAP_TAPCELL_ROW_9_115 VDD VSS gf180mcu_fd_sc_mcu7t5v0__filltie
X_363_ _371_/A1 _363_/A2 _647_/D VDD VDD VSS VSS gf180mcu_fd_sc_mcu7t5v0__nor2_1
XFILLER_26_96 VDD VDD VSS VSS gf180mcu_fd_sc_mcu7t5v0__fill_1
XFILLER_26_41 VDD VDD VSS VSS gf180mcu_fd_sc_mcu7t5v0__fill_2
XTAP_TAPCELL_ROW_15_139 VDD VSS gf180mcu_fd_sc_mcu7t5v0__filltie
X_432_ _644_/Q _435_/A3 _433_/A2 VDD VDD VSS VSS gf180mcu_fd_sc_mcu7t5v0__nand2_1
X_501_ _498_/Z _500_/Z _501_/Z VDD VDD VSS VSS gf180mcu_fd_sc_mcu7t5v0__xor2_1
XTAP_TAPCELL_ROW_20_164 VDD VSS gf180mcu_fd_sc_mcu7t5v0__filltie
XFILLER_18_247 VDD VDD VSS VSS gf180mcu_fd_sc_mcu7t5v0__fillcap_8
X_415_ _623_/I _335_/S _416_/S VDD VDD VSS VSS gf180mcu_fd_sc_mcu7t5v0__nor2_1
X_346_ input6/Z _635_/Q _348_/S _635_/D VDD VDD VSS VSS gf180mcu_fd_sc_mcu7t5v0__mux2_2
XFILLER_10_125 VDD VDD VSS VSS gf180mcu_fd_sc_mcu7t5v0__fill_1
X_329_ _662_/Q _587_/B1 VDD VDD VSS VSS gf180mcu_fd_sc_mcu7t5v0__clkinv_1
XFILLER_9_77 VDD VDD VSS VSS gf180mcu_fd_sc_mcu7t5v0__fillcap_4
XFILLER_9_44 VDD VDD VSS VSS gf180mcu_fd_sc_mcu7t5v0__fill_2
X_680_ _680_/D _413_/A1 _680_/Q VDD VDD VSS VSS gf180mcu_fd_sc_mcu7t5v0__dffq_2
XFILLER_18_86 VDD VDD VSS VSS gf180mcu_fd_sc_mcu7t5v0__fill_2
XFILLER_18_31 VDD VDD VSS VSS gf180mcu_fd_sc_mcu7t5v0__fillcap_4
XFILLER_11_264 VDD VDD VSS VSS gf180mcu_fd_sc_mcu7t5v0__fillcap_16
XFILLER_11_220 VDD VDD VSS VSS gf180mcu_fd_sc_mcu7t5v0__fillcap_4
XFILLER_19_342 VDD VDD VSS VSS gf180mcu_fd_sc_mcu7t5v0__fill_1
XFILLER_20_10 VDD VDD VSS VSS gf180mcu_fd_sc_mcu7t5v0__fillcap_4
X_594_ _705_/Q _706_/Q _594_/B _706_/D VDD VDD VSS VSS gf180mcu_fd_sc_mcu7t5v0__aoi21_1
XFILLER_4_238 VDD VDD VSS VSS gf180mcu_fd_sc_mcu7t5v0__fillcap_4
X_663_ _663_/D _711_/CLK _663_/Q VDD VDD VSS VSS gf180mcu_fd_sc_mcu7t5v0__dffq_1
XFILLER_19_150 VDD VDD VSS VSS gf180mcu_fd_sc_mcu7t5v0__fillcap_4
XFILLER_3_282 VDD VDD VSS VSS gf180mcu_fd_sc_mcu7t5v0__fillcap_32
XFILLER_25_131 VDD VDD VSS VSS gf180mcu_fd_sc_mcu7t5v0__fill_1
XFILLER_1_208 VDD VDD VSS VSS gf180mcu_fd_sc_mcu7t5v0__fill_2
X_646_ _646_/D _624_/I _653_/CLK _646_/Q VDD VDD VSS VSS gf180mcu_fd_sc_mcu7t5v0__dffrnq_1
XTAP_TAPCELL_ROW_26_192 VDD VSS gf180mcu_fd_sc_mcu7t5v0__filltie
X_577_ _693_/Q _692_/Q _578_/S _693_/D VDD VDD VSS VSS gf180mcu_fd_sc_mcu7t5v0__mux2_2
XFILLER_16_142 VDD VDD VSS VSS gf180mcu_fd_sc_mcu7t5v0__fill_2
XFILLER_0_274 VDD VDD VSS VSS gf180mcu_fd_sc_mcu7t5v0__fillcap_32
XFILLER_8_341 VDD VDD VSS VSS gf180mcu_fd_sc_mcu7t5v0__fill_2
XFILLER_7_8 VDD VDD VSS VSS gf180mcu_fd_sc_mcu7t5v0__fillcap_32
X_362_ _646_/Q _647_/Q _363_/A2 VDD VDD VSS VSS gf180mcu_fd_sc_mcu7t5v0__xnor2_1
XFILLER_9_116 VDD VDD VSS VSS gf180mcu_fd_sc_mcu7t5v0__fillcap_4
XFILLER_9_105 VDD VDD VSS VSS gf180mcu_fd_sc_mcu7t5v0__fillcap_4
X_431_ _438_/A1 _435_/A1 _434_/A2 _435_/A3 VDD VDD VSS VSS gf180mcu_fd_sc_mcu7t5v0__nand3_1
XFILLER_5_322 VDD VDD VSS VSS gf180mcu_fd_sc_mcu7t5v0__fillcap_8
X_500_ _499_/B _500_/I1 _500_/S _500_/Z VDD VDD VSS VSS gf180mcu_fd_sc_mcu7t5v0__mux2_2
X_629_ _629_/D _629_/RN _667_/CLK _629_/Q VDD VDD VSS VSS gf180mcu_fd_sc_mcu7t5v0__dffrnq_1
XTAP_TAPCELL_ROW_20_165 VDD VSS gf180mcu_fd_sc_mcu7t5v0__filltie
XFILLER_18_259 VDD VDD VSS VSS gf180mcu_fd_sc_mcu7t5v0__fill_2
XFILLER_18_204 VDD VDD VSS VSS gf180mcu_fd_sc_mcu7t5v0__fillcap_8
XFILLER_12_88 VDD VDD VSS VSS gf180mcu_fd_sc_mcu7t5v0__fill_2
XFILLER_10_115 VDD VDD VSS VSS gf180mcu_fd_sc_mcu7t5v0__fillcap_8
XFILLER_32_240 VDD VDD VSS VSS gf180mcu_fd_sc_mcu7t5v0__fillcap_32
X_414_ input9/Z _413_/Z _642_/D VDD VDD VSS VSS gf180mcu_fd_sc_mcu7t5v0__and2_1
XFILLER_17_270 VDD VDD VSS VSS gf180mcu_fd_sc_mcu7t5v0__fillcap_8
X_345_ input7/Z _636_/Q _348_/S _636_/D VDD VDD VSS VSS gf180mcu_fd_sc_mcu7t5v0__mux2_2
XTAP_TAPCELL_ROW_11_121 VDD VSS gf180mcu_fd_sc_mcu7t5v0__filltie
XFILLER_5_152 VDD VDD VSS VSS gf180mcu_fd_sc_mcu7t5v0__fill_1
XFILLER_5_163 VDD VDD VSS VSS gf180mcu_fd_sc_mcu7t5v0__fill_1
XFILLER_23_273 VDD VDD VSS VSS gf180mcu_fd_sc_mcu7t5v0__fillcap_4
XFILLER_23_240 VDD VDD VSS VSS gf180mcu_fd_sc_mcu7t5v0__fillcap_4
XPHY_EDGE_ROW_21_Right_21 VDD VSS gf180mcu_fd_sc_mcu7t5v0__endcap
XPHY_EDGE_ROW_12_Right_12 VDD VSS gf180mcu_fd_sc_mcu7t5v0__endcap
XPHY_EDGE_ROW_30_Right_30 VDD VSS gf180mcu_fd_sc_mcu7t5v0__endcap
XFILLER_14_262 VDD VDD VSS VSS gf180mcu_fd_sc_mcu7t5v0__fill_1
XFILLER_2_133 VDD VDD VSS VSS gf180mcu_fd_sc_mcu7t5v0__fill_1
XFILLER_2_122 VDD VDD VSS VSS gf180mcu_fd_sc_mcu7t5v0__fill_2
XFILLER_0_36 VDD VDD VSS VSS gf180mcu_fd_sc_mcu7t5v0__fillcap_32
XFILLER_3_2 VDD VDD VSS VSS gf180mcu_fd_sc_mcu7t5v0__fillcap_16
X_328_ _663_/Q _588_/A1 VDD VDD VSS VSS gf180mcu_fd_sc_mcu7t5v0__clkinv_1
XFILLER_20_243 VDD VDD VSS VSS gf180mcu_fd_sc_mcu7t5v0__fill_2
X_662_ _662_/D _711_/CLK _662_/Q VDD VDD VSS VSS gf180mcu_fd_sc_mcu7t5v0__dffq_1
XFILLER_4_206 VDD VDD VSS VSS gf180mcu_fd_sc_mcu7t5v0__fillcap_32
XFILLER_31_338 VDD VDD VSS VSS gf180mcu_fd_sc_mcu7t5v0__fillcap_4
X_593_ _705_/Q _706_/Q _680_/D _594_/B VDD VDD VSS VSS gf180mcu_fd_sc_mcu7t5v0__oai21_1
XPHY_EDGE_ROW_16_Left_49 VDD VSS gf180mcu_fd_sc_mcu7t5v0__endcap
XFILLER_6_57 VDD VDD VSS VSS gf180mcu_fd_sc_mcu7t5v0__fill_1
XPHY_EDGE_ROW_6_Right_6 VDD VSS gf180mcu_fd_sc_mcu7t5v0__endcap
XFILLER_31_113 VDD VDD VSS VSS gf180mcu_fd_sc_mcu7t5v0__fillcap_16
X_576_ _692_/Q _691_/Q _578_/S _692_/D VDD VDD VSS VSS gf180mcu_fd_sc_mcu7t5v0__mux2_2
XFILLER_15_88 VDD VDD VSS VSS gf180mcu_fd_sc_mcu7t5v0__fillcap_4
X_645_ _645_/D _672_/CLK _645_/Q VDD VDD VSS VSS gf180mcu_fd_sc_mcu7t5v0__dffq_2
X_361_ _646_/Q _371_/A1 _646_/D VDD VDD VSS VSS gf180mcu_fd_sc_mcu7t5v0__nor2_1
XFILLER_26_43 VDD VDD VSS VSS gf180mcu_fd_sc_mcu7t5v0__fill_1
XFILLER_26_10 VDD VDD VSS VSS gf180mcu_fd_sc_mcu7t5v0__fill_2
XFILLER_13_146 VDD VDD VSS VSS gf180mcu_fd_sc_mcu7t5v0__fill_2
XFILLER_9_139 VDD VDD VSS VSS gf180mcu_fd_sc_mcu7t5v0__fill_1
X_430_ _657_/Q _430_/A2 _429_/Z _434_/A2 VDD VDD VSS VSS gf180mcu_fd_sc_mcu7t5v0__nor3_1
XFILLER_5_334 VDD VDD VSS VSS gf180mcu_fd_sc_mcu7t5v0__fill_2
X_628_ _628_/D _413_/A1 _628_/Q VDD VDD VSS VSS gf180mcu_fd_sc_mcu7t5v0__dffq_1
X_559_ _401_/Z _561_/A2 _560_/A2 VDD VDD VSS VSS gf180mcu_fd_sc_mcu7t5v0__nand2_1
XFILLER_3_47 VDD VDD VSS VSS gf180mcu_fd_sc_mcu7t5v0__fill_1
XFILLER_3_58 VDD VDD VSS VSS gf180mcu_fd_sc_mcu7t5v0__fill_2
XFILLER_3_69 VDD VDD VSS VSS gf180mcu_fd_sc_mcu7t5v0__fill_1
XPHY_EDGE_ROW_19_Left_52 VDD VSS gf180mcu_fd_sc_mcu7t5v0__endcap
XTAP_TAPCELL_ROW_28_200 VDD VSS gf180mcu_fd_sc_mcu7t5v0__filltie
X_413_ _413_/A1 _359_/I _413_/Z VDD VDD VSS VSS gf180mcu_fd_sc_mcu7t5v0__xor2_1
X_344_ _344_/A1 _344_/A2 input3/Z _349_/A2 _348_/S VDD VDD VSS VSS gf180mcu_fd_sc_mcu7t5v0__nand4_4
XTAP_TAPCELL_ROW_11_122 VDD VSS gf180mcu_fd_sc_mcu7t5v0__filltie
XFILLER_5_120 VDD VDD VSS VSS gf180mcu_fd_sc_mcu7t5v0__fillcap_8
XFILLER_5_142 VDD VDD VSS VSS gf180mcu_fd_sc_mcu7t5v0__fill_2
XFILLER_32_274 VDD VDD VSS VSS gf180mcu_fd_sc_mcu7t5v0__fillcap_32
XFILLER_15_208 VDD VDD VSS VSS gf180mcu_fd_sc_mcu7t5v0__fill_2
XFILLER_23_44 VDD VDD VSS VSS gf180mcu_fd_sc_mcu7t5v0__fillcap_4
XFILLER_2_101 VDD VDD VSS VSS gf180mcu_fd_sc_mcu7t5v0__fillcap_4
XPHY_EDGE_ROW_4_Left_37 VDD VSS gf180mcu_fd_sc_mcu7t5v0__endcap
XFILLER_29_2 VDD VDD VSS VSS gf180mcu_fd_sc_mcu7t5v0__fillcap_64
X_327_ _712_/Q _590_/A2 VDD VDD VSS VSS gf180mcu_fd_sc_mcu7t5v0__clkinv_1
XFILLER_28_333 VDD VDD VSS VSS gf180mcu_fd_sc_mcu7t5v0__fillcap_8
XFILLER_28_311 VDD VDD VSS VSS gf180mcu_fd_sc_mcu7t5v0__fillcap_4
XFILLER_7_204 VDD VDD VSS VSS gf180mcu_fd_sc_mcu7t5v0__fillcap_4
XFILLER_7_237 VDD VDD VSS VSS gf180mcu_fd_sc_mcu7t5v0__fill_2
XFILLER_25_314 VDD VDD VSS VSS gf180mcu_fd_sc_mcu7t5v0__fillcap_16
XFILLER_20_23 VDD VDD VSS VSS gf180mcu_fd_sc_mcu7t5v0__fillcap_4
XFILLER_16_325 VDD VDD VSS VSS gf180mcu_fd_sc_mcu7t5v0__fillcap_16
X_592_ _629_/RN _705_/Q _705_/D VDD VDD VSS VSS gf180mcu_fd_sc_mcu7t5v0__nor2_1
X_661_ _661_/D _711_/CLK _661_/Q VDD VDD VSS VSS gf180mcu_fd_sc_mcu7t5v0__dffq_1
XPHY_EDGE_ROW_7_Left_40 VDD VSS gf180mcu_fd_sc_mcu7t5v0__endcap
XFILLER_22_317 VDD VDD VSS VSS gf180mcu_fd_sc_mcu7t5v0__fillcap_16
XFILLER_31_66 VDD VDD VSS VSS gf180mcu_fd_sc_mcu7t5v0__fillcap_4
X_575_ _691_/Q _690_/Q _578_/S _691_/D VDD VDD VSS VSS gf180mcu_fd_sc_mcu7t5v0__mux2_2
X_713_ _713_/D _624_/ZN _713_/CLK _713_/Q VDD VDD VSS VSS gf180mcu_fd_sc_mcu7t5v0__dffsnq_1
XFILLER_13_339 VDD VDD VSS VSS gf180mcu_fd_sc_mcu7t5v0__fillcap_4
X_644_ _644_/D _667_/CLK _644_/Q VDD VDD VSS VSS gf180mcu_fd_sc_mcu7t5v0__dffq_1
XTAP_TAPCELL_ROW_17_150 VDD VSS gf180mcu_fd_sc_mcu7t5v0__filltie
XFILLER_16_177 VDD VDD VSS VSS gf180mcu_fd_sc_mcu7t5v0__fillcap_4
XFILLER_11_2 VDD VDD VSS VSS gf180mcu_fd_sc_mcu7t5v0__fill_2
X_360_ input9/Z _369_/A2 _371_/A1 VDD VDD VSS VSS gf180mcu_fd_sc_mcu7t5v0__nand2_1
XTAP_TAPCELL_ROW_23_175 VDD VSS gf180mcu_fd_sc_mcu7t5v0__filltie
X_627_ _627_/D _713_/CLK _627_/Q VDD VDD VSS VSS gf180mcu_fd_sc_mcu7t5v0__dffq_1
X_558_ _558_/A1 _549_/Z _558_/B _561_/A2 VDD VDD VSS VSS gf180mcu_fd_sc_mcu7t5v0__oai21_1
X_489_ _502_/B1 _502_/B2 _489_/Z VDD VDD VSS VSS gf180mcu_fd_sc_mcu7t5v0__xor2_1
XTAP_TAPCELL_ROW_28_201 VDD VSS gf180mcu_fd_sc_mcu7t5v0__filltie
X_412_ _412_/I _628_/D VDD VDD VSS VSS gf180mcu_fd_sc_mcu7t5v0__clkinv_1
X_343_ input4/Z _637_/Q _343_/S _637_/D VDD VDD VSS VSS gf180mcu_fd_sc_mcu7t5v0__mux2_2
XTAP_TAPCELL_ROW_11_123 VDD VSS gf180mcu_fd_sc_mcu7t5v0__filltie
XPHY_EDGE_ROW_20_Left_53 VDD VSS gf180mcu_fd_sc_mcu7t5v0__endcap
XFILLER_23_297 VDD VDD VSS VSS gf180mcu_fd_sc_mcu7t5v0__fillcap_32
XFILLER_9_69 VDD VDD VSS VSS gf180mcu_fd_sc_mcu7t5v0__fill_1
XTAP_TAPCELL_ROW_0_70 VDD VSS gf180mcu_fd_sc_mcu7t5v0__filltie
X_326_ _326_/I _344_/A2 VDD VDD VSS VSS gf180mcu_fd_sc_mcu7t5v0__clkinv_1
XFILLER_9_36 VDD VDD VSS VSS gf180mcu_fd_sc_mcu7t5v0__fillcap_8
XFILLER_18_78 VDD VDD VSS VSS gf180mcu_fd_sc_mcu7t5v0__fillcap_8
XFILLER_18_45 VDD VDD VSS VSS gf180mcu_fd_sc_mcu7t5v0__fill_2
XFILLER_11_212 VDD VDD VSS VSS gf180mcu_fd_sc_mcu7t5v0__fill_2
XFILLER_9_290 VDD VDD VSS VSS gf180mcu_fd_sc_mcu7t5v0__fillcap_4
XFILLER_29_88 VDD VDD VSS VSS gf180mcu_fd_sc_mcu7t5v0__fill_2
XFILLER_29_66 VDD VDD VSS VSS gf180mcu_fd_sc_mcu7t5v0__fillcap_4
XFILLER_16_304 VDD VDD VSS VSS gf180mcu_fd_sc_mcu7t5v0__fill_2
X_660_ _660_/D _711_/CLK _660_/Q VDD VDD VSS VSS gf180mcu_fd_sc_mcu7t5v0__dffq_1
XFILLER_6_37 VDD VDD VSS VSS gf180mcu_fd_sc_mcu7t5v0__fillcap_16
X_591_ _591_/A1 _591_/A2 _696_/D VDD VDD VSS VSS gf180mcu_fd_sc_mcu7t5v0__nor2_1
XFILLER_19_142 VDD VDD VSS VSS gf180mcu_fd_sc_mcu7t5v0__fillcap_8
XFILLER_25_123 VDD VDD VSS VSS gf180mcu_fd_sc_mcu7t5v0__fillcap_8
XFILLER_13_307 VDD VDD VSS VSS gf180mcu_fd_sc_mcu7t5v0__fill_2
X_712_ _712_/D _712_/CLK _712_/Q VDD VDD VSS VSS gf180mcu_fd_sc_mcu7t5v0__dffq_1
X_574_ _690_/Q _689_/Q _578_/S _690_/D VDD VDD VSS VSS gf180mcu_fd_sc_mcu7t5v0__mux2_2
X_643_ _643_/D _672_/CLK _643_/Q VDD VDD VSS VSS gf180mcu_fd_sc_mcu7t5v0__dffq_2
XFILLER_8_333 VDD VDD VSS VSS gf180mcu_fd_sc_mcu7t5v0__fillcap_8
XFILLER_26_34 VDD VDD VSS VSS gf180mcu_fd_sc_mcu7t5v0__fill_1
XFILLER_22_137 VDD VDD VSS VSS gf180mcu_fd_sc_mcu7t5v0__fill_2
XTAP_TAPCELL_ROW_17_151 VDD VSS gf180mcu_fd_sc_mcu7t5v0__filltie
XFILLER_7_80 VDD VDD VSS VSS gf180mcu_fd_sc_mcu7t5v0__fill_2
XTAP_TAPCELL_ROW_23_176 VDD VSS gf180mcu_fd_sc_mcu7t5v0__filltie
X_626_ _626_/D _713_/CLK _626_/Q VDD VDD VSS VSS gf180mcu_fd_sc_mcu7t5v0__dffq_1
XFILLER_13_148 VDD VDD VSS VSS gf180mcu_fd_sc_mcu7t5v0__fill_1
X_557_ _558_/A1 _549_/Z _558_/B _560_/A1 VDD VDD VSS VSS gf180mcu_fd_sc_mcu7t5v0__nor3_1
XFILLER_5_336 VDD VDD VSS VSS gf180mcu_fd_sc_mcu7t5v0__fill_1
X_488_ _500_/S _488_/A2 _502_/B2 VDD VDD VSS VSS gf180mcu_fd_sc_mcu7t5v0__nand2_1
XFILLER_8_152 VDD VDD VSS VSS gf180mcu_fd_sc_mcu7t5v0__fill_2
X_342_ _372_/A1 _343_/S _342_/B _638_/D VDD VDD VSS VSS gf180mcu_fd_sc_mcu7t5v0__aoi21_1
X_411_ _628_/Q _538_/A2 _411_/B1 _636_/Q _412_/I VDD VDD VSS VSS gf180mcu_fd_sc_mcu7t5v0__aoi22_1
XTAP_TAPCELL_ROW_11_124 VDD VSS gf180mcu_fd_sc_mcu7t5v0__filltie
XFILLER_2_317 VDD VDD VSS VSS gf180mcu_fd_sc_mcu7t5v0__fillcap_16
X_609_ _711_/Q _604_/Z _609_/B _711_/D VDD VDD VSS VSS gf180mcu_fd_sc_mcu7t5v0__aoi21_1
XFILLER_23_232 VDD VDD VSS VSS gf180mcu_fd_sc_mcu7t5v0__fillcap_8
XFILLER_23_68 VDD VDD VSS VSS gf180mcu_fd_sc_mcu7t5v0__fill_2
X_325_ _325_/I _344_/A1 VDD VDD VSS VSS gf180mcu_fd_sc_mcu7t5v0__inv_2
XTAP_TAPCELL_ROW_0_71 VDD VSS gf180mcu_fd_sc_mcu7t5v0__filltie
Xclkload0 _649_/CLK clkload0/ZN VDD VDD VSS VSS gf180mcu_fd_sc_mcu7t5v0__inv_2
XFILLER_11_224 VDD VDD VSS VSS gf180mcu_fd_sc_mcu7t5v0__fill_2
XFILLER_1_2 VDD VDD VSS VSS gf180mcu_fd_sc_mcu7t5v0__fillcap_16
XFILLER_25_338 VDD VDD VSS VSS gf180mcu_fd_sc_mcu7t5v0__fillcap_4
XFILLER_10_290 VDD VDD VSS VSS gf180mcu_fd_sc_mcu7t5v0__fill_2
XFILLER_6_283 VDD VDD VSS VSS gf180mcu_fd_sc_mcu7t5v0__fill_2
XFILLER_20_58 VDD VDD VSS VSS gf180mcu_fd_sc_mcu7t5v0__fillcap_32
XFILLER_20_14 VDD VDD VSS VSS gf180mcu_fd_sc_mcu7t5v0__fill_1
X_590_ _664_/Q _590_/A2 _680_/D _591_/A2 VDD VDD VSS VSS gf180mcu_fd_sc_mcu7t5v0__oai21_1
XFILLER_30_341 VDD VDD VSS VSS gf180mcu_fd_sc_mcu7t5v0__fill_2
XFILLER_19_154 VDD VDD VSS VSS gf180mcu_fd_sc_mcu7t5v0__fill_2
XFILLER_21_330 VDD VDD VSS VSS gf180mcu_fd_sc_mcu7t5v0__fillcap_8
XFILLER_31_138 VDD VDD VSS VSS gf180mcu_fd_sc_mcu7t5v0__fill_2
XPHY_EDGE_ROW_28_Right_28 VDD VSS gf180mcu_fd_sc_mcu7t5v0__endcap
X_642_ _642_/D _690_/RN _649_/CLK _642_/Q VDD VDD VSS VSS gf180mcu_fd_sc_mcu7t5v0__dffrnq_1
X_573_ _689_/Q _688_/Q _573_/S _689_/D VDD VDD VSS VSS gf180mcu_fd_sc_mcu7t5v0__mux2_2
XPHY_EDGE_ROW_19_Right_19 VDD VSS gf180mcu_fd_sc_mcu7t5v0__endcap
XFILLER_12_341 VDD VDD VSS VSS gf180mcu_fd_sc_mcu7t5v0__fill_2
X_711_ _711_/D _711_/CLK _711_/Q VDD VDD VSS VSS gf180mcu_fd_sc_mcu7t5v0__dffq_1
XFILLER_11_4 VDD VDD VSS VSS gf180mcu_fd_sc_mcu7t5v0__fill_1
XFILLER_29_282 VDD VDD VSS VSS gf180mcu_fd_sc_mcu7t5v0__fillcap_32
XTAP_TAPCELL_ROW_23_177 VDD VSS gf180mcu_fd_sc_mcu7t5v0__filltie
XFILLER_21_193 VDD VDD VSS VSS gf180mcu_fd_sc_mcu7t5v0__fill_2
X_625_ _625_/D _713_/CLK _625_/Q VDD VDD VSS VSS gf180mcu_fd_sc_mcu7t5v0__dffq_1
XFILLER_9_109 VDD VDD VSS VSS gf180mcu_fd_sc_mcu7t5v0__fill_1
XFILLER_27_208 VDD VDD VSS VSS gf180mcu_fd_sc_mcu7t5v0__fill_2
X_556_ _673_/Q _628_/Q _558_/B VDD VDD VSS VSS gf180mcu_fd_sc_mcu7t5v0__xor2_1
XFILLER_12_193 VDD VDD VSS VSS gf180mcu_fd_sc_mcu7t5v0__fillcap_4
XFILLER_8_142 VDD VDD VSS VSS gf180mcu_fd_sc_mcu7t5v0__fill_2
X_487_ _483_/Z _487_/A2 _508_/A3 _474_/B _488_/A2 VDD VDD VSS VSS gf180mcu_fd_sc_mcu7t5v0__oai22_1
X_341_ input5/Z _343_/S _342_/B VDD VDD VSS VSS gf180mcu_fd_sc_mcu7t5v0__nor2_1
X_410_ _410_/I _627_/D VDD VDD VSS VSS gf180mcu_fd_sc_mcu7t5v0__clkinv_1
XFILLER_12_37 VDD VDD VSS VSS gf180mcu_fd_sc_mcu7t5v0__fill_2
X_539_ _539_/I _675_/D VDD VDD VSS VSS gf180mcu_fd_sc_mcu7t5v0__clkinv_1
X_608_ _711_/Q _604_/Z _608_/B _609_/B VDD VDD VSS VSS gf180mcu_fd_sc_mcu7t5v0__oai21_1
XFILLER_23_277 VDD VDD VSS VSS gf180mcu_fd_sc_mcu7t5v0__fill_2
XFILLER_23_244 VDD VDD VSS VSS gf180mcu_fd_sc_mcu7t5v0__fill_2
X_324_ _680_/D _629_/RN VDD VDD VSS VSS gf180mcu_fd_sc_mcu7t5v0__clkinv_2
XFILLER_14_222 VDD VDD VSS VSS gf180mcu_fd_sc_mcu7t5v0__fill_2
XFILLER_20_247 VDD VDD VSS VSS gf180mcu_fd_sc_mcu7t5v0__fillcap_4
XTAP_TAPCELL_ROW_0_72 VDD VSS gf180mcu_fd_sc_mcu7t5v0__filltie
XFILLER_19_314 VDD VDD VSS VSS gf180mcu_fd_sc_mcu7t5v0__fillcap_16
XFILLER_11_214 VDD VDD VSS VSS gf180mcu_fd_sc_mcu7t5v0__fill_1
XFILLER_20_37 VDD VDD VSS VSS gf180mcu_fd_sc_mcu7t5v0__fillcap_4
XFILLER_16_306 VDD VDD VSS VSS gf180mcu_fd_sc_mcu7t5v0__fill_1
XFILLER_3_276 VDD VDD VSS VSS gf180mcu_fd_sc_mcu7t5v0__fillcap_4
XFILLER_21_342 VDD VDD VSS VSS gf180mcu_fd_sc_mcu7t5v0__fill_1
XFILLER_13_309 VDD VDD VSS VSS gf180mcu_fd_sc_mcu7t5v0__fill_1
X_572_ _688_/Q _687_/Q _573_/S _688_/D VDD VDD VSS VSS gf180mcu_fd_sc_mcu7t5v0__mux2_2
XFILLER_16_103 VDD VDD VSS VSS gf180mcu_fd_sc_mcu7t5v0__fill_2
X_641_ _641_/D _641_/RN _701_/CLK _641_/Q VDD VDD VSS VSS gf180mcu_fd_sc_mcu7t5v0__dffrnq_1
X_710_ _710_/D _711_/CLK _710_/Q VDD VDD VSS VSS gf180mcu_fd_sc_mcu7t5v0__dffq_1
XTAP_TAPCELL_ROW_23_178 VDD VSS gf180mcu_fd_sc_mcu7t5v0__filltie
XFILLER_3_18 VDD VDD VSS VSS gf180mcu_fd_sc_mcu7t5v0__fill_1
XTAP_TAPCELL_ROW_8_110 VDD VSS gf180mcu_fd_sc_mcu7t5v0__filltie
X_624_ _624_/I _624_/ZN VDD VDD VSS VSS gf180mcu_fd_sc_mcu7t5v0__clkinv_1
XTAP_TAPCELL_ROW_14_134 VDD VSS gf180mcu_fd_sc_mcu7t5v0__filltie
X_555_ _673_/Q _628_/Q _555_/Z VDD VDD VSS VSS gf180mcu_fd_sc_mcu7t5v0__and2_1
X_486_ _474_/B _483_/Z _487_/A2 _508_/A3 _500_/S VDD VDD VSS VSS gf180mcu_fd_sc_mcu7t5v0__or4_1
XFILLER_32_201 VDD VDD VSS VSS gf180mcu_fd_sc_mcu7t5v0__fill_2
X_340_ input6/Z _639_/Q _343_/S _639_/D VDD VDD VSS VSS gf180mcu_fd_sc_mcu7t5v0__mux2_2
X_538_ _675_/Q _538_/A2 _401_/Z _537_/Z _539_/I VDD VDD VSS VSS gf180mcu_fd_sc_mcu7t5v0__aoi22_1
X_607_ _711_/Q _604_/Z _610_/A2 VDD VDD VSS VSS gf180mcu_fd_sc_mcu7t5v0__nand2_1
XFILLER_1_330 VDD VDD VSS VSS gf180mcu_fd_sc_mcu7t5v0__fillcap_8
XFILLER_23_212 VDD VDD VSS VSS gf180mcu_fd_sc_mcu7t5v0__fillcap_4
XFILLER_23_48 VDD VDD VSS VSS gf180mcu_fd_sc_mcu7t5v0__fill_2
X_469_ _469_/A1 _469_/A2 _469_/B _666_/D VDD VDD VSS VSS gf180mcu_fd_sc_mcu7t5v0__aoi21_1
X_323_ _698_/Q _381_/A1 VDD VDD VSS VSS gf180mcu_fd_sc_mcu7t5v0__clkinv_1
XFILLER_14_256 VDD VDD VSS VSS gf180mcu_fd_sc_mcu7t5v0__fillcap_4
XTAP_TAPCELL_ROW_30_210 VDD VSS gf180mcu_fd_sc_mcu7t5v0__filltie
XPHY_EDGE_ROW_24_Left_57 VDD VSS gf180mcu_fd_sc_mcu7t5v0__endcap
XFILLER_9_282 VDD VDD VSS VSS gf180mcu_fd_sc_mcu7t5v0__fillcap_8
XTAP_TAPCELL_ROW_0_73 VDD VSS gf180mcu_fd_sc_mcu7t5v0__filltie
XFILLER_18_37 VDD VDD VSS VSS gf180mcu_fd_sc_mcu7t5v0__fillcap_8
XFILLER_11_226 VDD VDD VSS VSS gf180mcu_fd_sc_mcu7t5v0__fill_1
XFILLER_7_208 VDD VDD VSS VSS gf180mcu_fd_sc_mcu7t5v0__fill_2
XFILLER_10_292 VDD VDD VSS VSS gf180mcu_fd_sc_mcu7t5v0__fill_1
XFILLER_6_285 VDD VDD VSS VSS gf180mcu_fd_sc_mcu7t5v0__fill_1
XFILLER_28_189 VDD VDD VSS VSS gf180mcu_fd_sc_mcu7t5v0__fill_1
XFILLER_19_134 VDD VDD VSS VSS gf180mcu_fd_sc_mcu7t5v0__fillcap_4
XFILLER_19_80 VDD VDD VSS VSS gf180mcu_fd_sc_mcu7t5v0__fill_2
XPHY_EDGE_ROW_27_Left_60 VDD VSS gf180mcu_fd_sc_mcu7t5v0__endcap
XPHY_EDGE_ROW_11_Left_44 VDD VSS gf180mcu_fd_sc_mcu7t5v0__endcap
XFILLER_31_129 VDD VDD VSS VSS gf180mcu_fd_sc_mcu7t5v0__fill_2
X_571_ _687_/Q _686_/Q _573_/S _687_/D VDD VDD VSS VSS gf180mcu_fd_sc_mcu7t5v0__mux2_2
X_640_ _640_/D _622_/ZN _701_/CLK _640_/Q VDD VDD VSS VSS gf180mcu_fd_sc_mcu7t5v0__dffsnq_1
XFILLER_12_310 VDD VDD VSS VSS gf180mcu_fd_sc_mcu7t5v0__fillcap_4
XPHY_EDGE_ROW_1_Right_1 VDD VSS gf180mcu_fd_sc_mcu7t5v0__endcap
XFILLER_21_92 VDD VDD VSS VSS gf180mcu_fd_sc_mcu7t5v0__fillcap_8
XFILLER_26_37 VDD VDD VSS VSS gf180mcu_fd_sc_mcu7t5v0__fillcap_4
XFILLER_21_195 VDD VDD VSS VSS gf180mcu_fd_sc_mcu7t5v0__fill_1
XTAP_TAPCELL_ROW_8_111 VDD VSS gf180mcu_fd_sc_mcu7t5v0__filltie
X_623_ _623_/I _641_/RN VDD VDD VSS VSS gf180mcu_fd_sc_mcu7t5v0__clkinv_1
XTAP_TAPCELL_ROW_14_135 VDD VSS gf180mcu_fd_sc_mcu7t5v0__filltie
XFILLER_12_162 VDD VDD VSS VSS gf180mcu_fd_sc_mcu7t5v0__fillcap_4
X_554_ _678_/Q _554_/A2 _560_/B VDD VDD VSS VSS gf180mcu_fd_sc_mcu7t5v0__nand2_1
X_485_ _631_/Q _629_/Q _485_/B _508_/A3 VDD VDD VSS VSS gf180mcu_fd_sc_mcu7t5v0__oai21_1
XFILLER_8_144 VDD VDD VSS VSS gf180mcu_fd_sc_mcu7t5v0__fill_1
XFILLER_8_133 VDD VDD VSS VSS gf180mcu_fd_sc_mcu7t5v0__fill_1
XFILLER_1_342 VDD VDD VSS VSS gf180mcu_fd_sc_mcu7t5v0__fill_1
XFILLER_27_80 VDD VDD VSS VSS gf180mcu_fd_sc_mcu7t5v0__fillcap_16
X_399_ _399_/A1 _398_/Z _704_/D VDD VDD VSS VSS gf180mcu_fd_sc_mcu7t5v0__nor2_1
XFILLER_17_254 VDD VDD VSS VSS gf180mcu_fd_sc_mcu7t5v0__fillcap_16
X_537_ _670_/Q _625_/Q _537_/Z VDD VDD VSS VSS gf180mcu_fd_sc_mcu7t5v0__xor2_1
X_468_ _469_/B _467_/Z _665_/D VDD VDD VSS VSS gf180mcu_fd_sc_mcu7t5v0__nor2_1
X_606_ _604_/Z _606_/A2 _710_/D VDD VDD VSS VSS gf180mcu_fd_sc_mcu7t5v0__nor2_1
X_322_ _699_/Q _374_/B1 VDD VDD VSS VSS gf180mcu_fd_sc_mcu7t5v0__clkinv_1
XFILLER_23_279 VDD VDD VSS VSS gf180mcu_fd_sc_mcu7t5v0__fill_1
XFILLER_23_246 VDD VDD VSS VSS gf180mcu_fd_sc_mcu7t5v0__fill_1
XFILLER_14_224 VDD VDD VSS VSS gf180mcu_fd_sc_mcu7t5v0__fill_1
XFILLER_20_227 VDD VDD VSS VSS gf180mcu_fd_sc_mcu7t5v0__fillcap_16
XFILLER_9_250 VDD VDD VSS VSS gf180mcu_fd_sc_mcu7t5v0__fill_1
XTAP_TAPCELL_ROW_0_74 VDD VSS gf180mcu_fd_sc_mcu7t5v0__filltie
XFILLER_9_294 VDD VDD VSS VSS gf180mcu_fd_sc_mcu7t5v0__fill_1
XFILLER_19_338 VDD VDD VSS VSS gf180mcu_fd_sc_mcu7t5v0__fillcap_4
XFILLER_19_305 VDD VDD VSS VSS gf180mcu_fd_sc_mcu7t5v0__fill_1
XFILLER_10_282 VDD VDD VSS VSS gf180mcu_fd_sc_mcu7t5v0__fillcap_8
XFILLER_6_231 VDD VDD VSS VSS gf180mcu_fd_sc_mcu7t5v0__fillcap_8
XFILLER_24_341 VDD VDD VSS VSS gf180mcu_fd_sc_mcu7t5v0__fill_2
XFILLER_3_212 VDD VDD VSS VSS gf180mcu_fd_sc_mcu7t5v0__fillcap_64
XFILLER_32_2 VDD VDD VSS VSS gf180mcu_fd_sc_mcu7t5v0__fillcap_32
XFILLER_30_333 VDD VDD VSS VSS gf180mcu_fd_sc_mcu7t5v0__fillcap_8
XFILLER_30_311 VDD VDD VSS VSS gf180mcu_fd_sc_mcu7t5v0__fillcap_4