*SPEF "ieee 1481-1999"
*DESIGN "tt_um_counter_top"
*DATE "22:55:28 Monday October 06, 2025"
*VENDOR "The OpenROAD Project"
*PROGRAM "OpenROAD"
*VERSION "v2.0-16235-gedf00dff9"
*DESIGN_FLOW "NAME_SCOPE LOCAL" "PIN_CAP NONE"
*DIVIDER /
*DELIMITER :
*BUS_DELIMITER []
*T_UNIT 1 NS
*C_UNIT 1 PF
*R_UNIT 1 OHM
*L_UNIT 1 HENRY

*NAME_MAP
*3 clk
*4 ena
*5 rst_n
*6 ui_in[0]
*7 ui_in[1]
*8 ui_in[2]
*9 ui_in[3]
*10 ui_in[4]
*11 ui_in[5]
*12 ui_in[6]
*13 ui_in[7]
*14 uio_in[0]
*15 uio_in[1]
*16 uio_in[2]
*17 uio_in[3]
*18 uio_in[4]
*19 uio_in[5]
*20 uio_in[6]
*21 uio_in[7]
*22 net2
*23 net3
*24 net4
*25 net5
*26 net6
*27 net7
*28 net8
*29 net9
*30 net10
*31 net11
*32 net12
*33 net13
*34 net14
*35 net15
*36 net16
*37 net17
*38 uo_out[0]
*39 uo_out[1]
*40 uo_out[2]
*41 uo_out[3]
*42 uo_out[4]
*43 uo_out[5]
*44 uo_out[6]
*45 uo_out[7]
*46 _00_
*47 _01_
*48 _02_
*49 _03_
*50 _04_
*51 _05_
*52 _06_
*53 _07_
*54 _08_
*55 _09_
*56 _10_
*57 _11_
*58 _12_
*59 _13_
*60 _14_
*61 _15_
*62 _16_
*63 _17_
*64 _18_
*65 clknet_0_clk
*66 clknet_1_0__leaf_clk
*67 clknet_1_1__leaf_clk
*68 net1
*69 net18
*70 net19
*71 net20
*72 FILLER_0_103
*73 FILLER_0_106
*74 FILLER_0_109
*75 FILLER_0_113
*76 FILLER_0_116
*77 FILLER_0_119
*78 FILLER_0_12
*79 FILLER_0_122
*80 FILLER_0_125
*81 FILLER_0_128
*82 FILLER_0_131
*83 FILLER_0_141
*84 FILLER_0_15
*85 FILLER_0_152
*86 FILLER_0_155
*87 FILLER_0_159
*88 FILLER_0_18
*89 FILLER_0_187
*90 FILLER_0_190
*91 FILLER_0_193
*92 FILLER_0_197
*93 FILLER_0_201
*94 FILLER_0_204
*95 FILLER_0_208
*96 FILLER_0_21
*97 FILLER_0_211
*98 FILLER_0_214
*99 FILLER_0_217
*100 FILLER_0_220
*101 FILLER_0_223
*102 FILLER_0_225
*103 FILLER_0_228
*104 FILLER_0_231
*105 FILLER_0_234
*106 FILLER_0_237
*107 FILLER_0_24
*108 FILLER_0_240
*109 FILLER_0_243
*110 FILLER_0_246
*111 FILLER_0_249
*112 FILLER_0_253
*113 FILLER_0_256
*114 FILLER_0_259
*115 FILLER_0_262
*116 FILLER_0_265
*117 FILLER_0_268
*118 FILLER_0_27
*119 FILLER_0_271
*120 FILLER_0_274
*121 FILLER_0_277
*122 FILLER_0_281
*123 FILLER_0_284
*124 FILLER_0_287
*125 FILLER_0_29
*126 FILLER_0_290
*127 FILLER_0_293
*128 FILLER_0_296
*129 FILLER_0_299
*130 FILLER_0_3
*131 FILLER_0_302
*132 FILLER_0_305
*133 FILLER_0_309
*134 FILLER_0_312
*135 FILLER_0_315
*136 FILLER_0_318
*137 FILLER_0_32
*138 FILLER_0_321
*139 FILLER_0_324
*140 FILLER_0_327
*141 FILLER_0_330
*142 FILLER_0_35
*143 FILLER_0_38
*144 FILLER_0_41
*145 FILLER_0_44
*146 FILLER_0_47
*147 FILLER_0_50
*148 FILLER_0_53
*149 FILLER_0_57
*150 FILLER_0_6
*151 FILLER_0_60
*152 FILLER_0_63
*153 FILLER_0_66
*154 FILLER_0_69
*155 FILLER_0_72
*156 FILLER_0_75
*157 FILLER_0_78
*158 FILLER_0_81
*159 FILLER_0_85
*160 FILLER_0_88
*161 FILLER_0_9
*162 FILLER_0_91
*163 FILLER_0_94
*164 FILLER_0_97
*165 FILLER_10_100
*166 FILLER_10_103
*167 FILLER_10_106
*168 FILLER_10_109
*169 FILLER_10_112
*170 FILLER_10_115
*171 FILLER_10_118
*172 FILLER_10_12
*173 FILLER_10_121
*174 FILLER_10_124
*175 FILLER_10_127
*176 FILLER_10_130
*177 FILLER_10_133
*178 FILLER_10_136
*179 FILLER_10_139
*180 FILLER_10_141
*181 FILLER_10_144
*182 FILLER_10_147
*183 FILLER_10_15
*184 FILLER_10_150
*185 FILLER_10_153
*186 FILLER_10_156
*187 FILLER_10_159
*188 FILLER_10_162
*189 FILLER_10_165
*190 FILLER_10_168
*191 FILLER_10_171
*192 FILLER_10_174
*193 FILLER_10_177
*194 FILLER_10_18
*195 FILLER_10_180
*196 FILLER_10_183
*197 FILLER_10_186
*198 FILLER_10_189
*199 FILLER_10_192
*200 FILLER_10_195
*201 FILLER_10_197
*202 FILLER_10_200
*203 FILLER_10_203
*204 FILLER_10_206
*205 FILLER_10_209
*206 FILLER_10_21
*207 FILLER_10_212
*208 FILLER_10_215
*209 FILLER_10_218
*210 FILLER_10_221
*211 FILLER_10_224
*212 FILLER_10_227
*213 FILLER_10_230
*214 FILLER_10_233
*215 FILLER_10_236
*216 FILLER_10_239
*217 FILLER_10_24
*218 FILLER_10_242
*219 FILLER_10_245
*220 FILLER_10_248
*221 FILLER_10_251
*222 FILLER_10_253
*223 FILLER_10_256
*224 FILLER_10_259
*225 FILLER_10_262
*226 FILLER_10_265
*227 FILLER_10_268
*228 FILLER_10_27
*229 FILLER_10_271
*230 FILLER_10_274
*231 FILLER_10_277
*232 FILLER_10_280
*233 FILLER_10_283
*234 FILLER_10_286
*235 FILLER_10_289
*236 FILLER_10_29
*237 FILLER_10_292
*238 FILLER_10_295
*239 FILLER_10_298
*240 FILLER_10_3
*241 FILLER_10_301
*242 FILLER_10_304
*243 FILLER_10_307
*244 FILLER_10_309
*245 FILLER_10_312
*246 FILLER_10_315
*247 FILLER_10_318
*248 FILLER_10_32
*249 FILLER_10_321
*250 FILLER_10_324
*251 FILLER_10_327
*252 FILLER_10_330
*253 FILLER_10_35
*254 FILLER_10_38
*255 FILLER_10_41
*256 FILLER_10_44
*257 FILLER_10_47
*258 FILLER_10_50
*259 FILLER_10_53
*260 FILLER_10_56
*261 FILLER_10_59
*262 FILLER_10_6
*263 FILLER_10_62
*264 FILLER_10_65
*265 FILLER_10_68
*266 FILLER_10_71
*267 FILLER_10_74
*268 FILLER_10_77
*269 FILLER_10_80
*270 FILLER_10_83
*271 FILLER_10_85
*272 FILLER_10_88
*273 FILLER_10_9
*274 FILLER_10_91
*275 FILLER_10_94
*276 FILLER_10_97
*277 FILLER_11_102
*278 FILLER_11_105
*279 FILLER_11_108
*280 FILLER_11_111
*281 FILLER_11_113
*282 FILLER_11_116
*283 FILLER_11_119
*284 FILLER_11_12
*285 FILLER_11_122
*286 FILLER_11_125
*287 FILLER_11_128
*288 FILLER_11_131
*289 FILLER_11_134
*290 FILLER_11_137
*291 FILLER_11_140
*292 FILLER_11_143
*293 FILLER_11_146
*294 FILLER_11_149
*295 FILLER_11_15
*296 FILLER_11_152
*297 FILLER_11_155
*298 FILLER_11_162
*299 FILLER_11_165
*300 FILLER_11_169
*301 FILLER_11_172
*302 FILLER_11_175
*303 FILLER_11_178
*304 FILLER_11_18
*305 FILLER_11_181
*306 FILLER_11_184
*307 FILLER_11_187
*308 FILLER_11_190
*309 FILLER_11_193
*310 FILLER_11_196
*311 FILLER_11_199
*312 FILLER_11_202
*313 FILLER_11_205
*314 FILLER_11_208
*315 FILLER_11_21
*316 FILLER_11_211
*317 FILLER_11_214
*318 FILLER_11_217
*319 FILLER_11_220
*320 FILLER_11_223
*321 FILLER_11_225
*322 FILLER_11_228
*323 FILLER_11_231
*324 FILLER_11_234
*325 FILLER_11_237
*326 FILLER_11_24
*327 FILLER_11_240
*328 FILLER_11_243
*329 FILLER_11_246
*330 FILLER_11_249
*331 FILLER_11_252
*332 FILLER_11_255
*333 FILLER_11_258
*334 FILLER_11_261
*335 FILLER_11_264
*336 FILLER_11_267
*337 FILLER_11_27
*338 FILLER_11_270
*339 FILLER_11_273
*340 FILLER_11_276
*341 FILLER_11_279
*342 FILLER_11_281
*343 FILLER_11_284
*344 FILLER_11_287
*345 FILLER_11_290
*346 FILLER_11_293
*347 FILLER_11_296
*348 FILLER_11_299
*349 FILLER_11_3
*350 FILLER_11_30
*351 FILLER_11_302
*352 FILLER_11_305
*353 FILLER_11_308
*354 FILLER_11_311
*355 FILLER_11_314
*356 FILLER_11_317
*357 FILLER_11_320
*358 FILLER_11_323
*359 FILLER_11_326
*360 FILLER_11_329
*361 FILLER_11_33
*362 FILLER_11_36
*363 FILLER_11_39
*364 FILLER_11_42
*365 FILLER_11_45
*366 FILLER_11_48
*367 FILLER_11_51
*368 FILLER_11_54
*369 FILLER_11_57
*370 FILLER_11_6
*371 FILLER_11_60
*372 FILLER_11_63
*373 FILLER_11_66
*374 FILLER_11_69
*375 FILLER_11_72
*376 FILLER_11_75
*377 FILLER_11_78
*378 FILLER_11_81
*379 FILLER_11_84
*380 FILLER_11_87
*381 FILLER_11_9
*382 FILLER_11_90
*383 FILLER_11_93
*384 FILLER_11_96
*385 FILLER_11_99
*386 FILLER_12_100
*387 FILLER_12_103
*388 FILLER_12_106
*389 FILLER_12_109
*390 FILLER_12_112
*391 FILLER_12_115
*392 FILLER_12_118
*393 FILLER_12_12
*394 FILLER_12_121
*395 FILLER_12_124
*396 FILLER_12_127
*397 FILLER_12_130
*398 FILLER_12_133
*399 FILLER_12_136
*400 FILLER_12_139
*401 FILLER_12_141
*402 FILLER_12_144
*403 FILLER_12_147
*404 FILLER_12_15
*405 FILLER_12_150
*406 FILLER_12_153
*407 FILLER_12_176
*408 FILLER_12_179
*409 FILLER_12_18
*410 FILLER_12_182
*411 FILLER_12_185
*412 FILLER_12_188
*413 FILLER_12_191
*414 FILLER_12_194
*415 FILLER_12_197
*416 FILLER_12_200
*417 FILLER_12_203
*418 FILLER_12_206
*419 FILLER_12_209
*420 FILLER_12_21
*421 FILLER_12_212
*422 FILLER_12_215
*423 FILLER_12_218
*424 FILLER_12_221
*425 FILLER_12_224
*426 FILLER_12_227
*427 FILLER_12_230
*428 FILLER_12_233
*429 FILLER_12_236
*430 FILLER_12_239
*431 FILLER_12_24
*432 FILLER_12_242
*433 FILLER_12_245
*434 FILLER_12_248
*435 FILLER_12_251
*436 FILLER_12_253
*437 FILLER_12_256
*438 FILLER_12_259
*439 FILLER_12_262
*440 FILLER_12_265
*441 FILLER_12_268
*442 FILLER_12_27
*443 FILLER_12_271
*444 FILLER_12_274
*445 FILLER_12_277
*446 FILLER_12_280
*447 FILLER_12_283
*448 FILLER_12_286
*449 FILLER_12_289
*450 FILLER_12_29
*451 FILLER_12_292
*452 FILLER_12_295
*453 FILLER_12_298
*454 FILLER_12_3
*455 FILLER_12_301
*456 FILLER_12_304
*457 FILLER_12_307
*458 FILLER_12_309
*459 FILLER_12_312
*460 FILLER_12_315
*461 FILLER_12_318
*462 FILLER_12_32
*463 FILLER_12_321
*464 FILLER_12_324
*465 FILLER_12_327
*466 FILLER_12_330
*467 FILLER_12_35
*468 FILLER_12_38
*469 FILLER_12_41
*470 FILLER_12_44
*471 FILLER_12_47
*472 FILLER_12_50
*473 FILLER_12_53
*474 FILLER_12_56
*475 FILLER_12_59
*476 FILLER_12_6
*477 FILLER_12_62
*478 FILLER_12_65
*479 FILLER_12_68
*480 FILLER_12_71
*481 FILLER_12_74
*482 FILLER_12_77
*483 FILLER_12_80
*484 FILLER_12_83
*485 FILLER_12_85
*486 FILLER_12_88
*487 FILLER_12_9
*488 FILLER_12_91
*489 FILLER_12_94
*490 FILLER_12_97
*491 FILLER_13_102
*492 FILLER_13_105
*493 FILLER_13_108
*494 FILLER_13_111
*495 FILLER_13_113
*496 FILLER_13_116
*497 FILLER_13_119
*498 FILLER_13_12
*499 FILLER_13_122
*500 FILLER_13_125
*501 FILLER_13_128
*502 FILLER_13_131
*503 FILLER_13_134
*504 FILLER_13_137
*505 FILLER_13_140
*506 FILLER_13_143
*507 FILLER_13_146
*508 FILLER_13_149
*509 FILLER_13_15
*510 FILLER_13_152
*511 FILLER_13_155
*512 FILLER_13_158
*513 FILLER_13_161
*514 FILLER_13_164
*515 FILLER_13_167
*516 FILLER_13_169
*517 FILLER_13_172
*518 FILLER_13_175
*519 FILLER_13_178
*520 FILLER_13_18
*521 FILLER_13_181
*522 FILLER_13_184
*523 FILLER_13_187
*524 FILLER_13_190
*525 FILLER_13_193
*526 FILLER_13_196
*527 FILLER_13_199
*528 FILLER_13_202
*529 FILLER_13_205
*530 FILLER_13_208
*531 FILLER_13_21
*532 FILLER_13_211
*533 FILLER_13_214
*534 FILLER_13_217
*535 FILLER_13_220
*536 FILLER_13_223
*537 FILLER_13_225
*538 FILLER_13_228
*539 FILLER_13_231
*540 FILLER_13_234
*541 FILLER_13_237
*542 FILLER_13_24
*543 FILLER_13_240
*544 FILLER_13_243
*545 FILLER_13_246
*546 FILLER_13_249
*547 FILLER_13_252
*548 FILLER_13_255
*549 FILLER_13_258
*550 FILLER_13_261
*551 FILLER_13_264
*552 FILLER_13_267
*553 FILLER_13_27
*554 FILLER_13_270
*555 FILLER_13_273
*556 FILLER_13_276
*557 FILLER_13_279
*558 FILLER_13_281
*559 FILLER_13_284
*560 FILLER_13_287
*561 FILLER_13_290
*562 FILLER_13_293
*563 FILLER_13_296
*564 FILLER_13_299
*565 FILLER_13_3
*566 FILLER_13_30
*567 FILLER_13_302
*568 FILLER_13_305
*569 FILLER_13_308
*570 FILLER_13_311
*571 FILLER_13_314
*572 FILLER_13_317
*573 FILLER_13_320
*574 FILLER_13_323
*575 FILLER_13_326
*576 FILLER_13_329
*577 FILLER_13_33
*578 FILLER_13_36
*579 FILLER_13_39
*580 FILLER_13_42
*581 FILLER_13_45
*582 FILLER_13_48
*583 FILLER_13_51
*584 FILLER_13_54
*585 FILLER_13_57
*586 FILLER_13_6
*587 FILLER_13_60
*588 FILLER_13_63
*589 FILLER_13_66
*590 FILLER_13_69
*591 FILLER_13_72
*592 FILLER_13_75
*593 FILLER_13_78
*594 FILLER_13_81
*595 FILLER_13_84
*596 FILLER_13_87
*597 FILLER_13_9
*598 FILLER_13_90
*599 FILLER_13_93
*600 FILLER_13_96
*601 FILLER_13_99
*602 FILLER_14_100
*603 FILLER_14_103
*604 FILLER_14_106
*605 FILLER_14_109
*606 FILLER_14_112
*607 FILLER_14_115
*608 FILLER_14_118
*609 FILLER_14_12
*610 FILLER_14_121
*611 FILLER_14_124
*612 FILLER_14_127
*613 FILLER_14_130
*614 FILLER_14_133
*615 FILLER_14_136
*616 FILLER_14_139
*617 FILLER_14_141
*618 FILLER_14_144
*619 FILLER_14_147
*620 FILLER_14_15
*621 FILLER_14_150
*622 FILLER_14_153
*623 FILLER_14_156
*624 FILLER_14_159
*625 FILLER_14_162
*626 FILLER_14_165
*627 FILLER_14_168
*628 FILLER_14_171
*629 FILLER_14_174
*630 FILLER_14_177
*631 FILLER_14_18
*632 FILLER_14_180
*633 FILLER_14_183
*634 FILLER_14_186
*635 FILLER_14_189
*636 FILLER_14_192
*637 FILLER_14_195
*638 FILLER_14_197
*639 FILLER_14_200
*640 FILLER_14_203
*641 FILLER_14_206
*642 FILLER_14_209
*643 FILLER_14_21
*644 FILLER_14_212
*645 FILLER_14_215
*646 FILLER_14_218
*647 FILLER_14_221
*648 FILLER_14_224
*649 FILLER_14_227
*650 FILLER_14_230
*651 FILLER_14_233
*652 FILLER_14_236
*653 FILLER_14_239
*654 FILLER_14_24
*655 FILLER_14_242
*656 FILLER_14_245
*657 FILLER_14_248
*658 FILLER_14_251
*659 FILLER_14_253
*660 FILLER_14_256
*661 FILLER_14_259
*662 FILLER_14_262
*663 FILLER_14_265
*664 FILLER_14_268
*665 FILLER_14_27
*666 FILLER_14_271
*667 FILLER_14_274
*668 FILLER_14_277
*669 FILLER_14_280
*670 FILLER_14_283
*671 FILLER_14_286
*672 FILLER_14_289
*673 FILLER_14_29
*674 FILLER_14_292
*675 FILLER_14_295
*676 FILLER_14_298
*677 FILLER_14_3
*678 FILLER_14_301
*679 FILLER_14_304
*680 FILLER_14_307
*681 FILLER_14_309
*682 FILLER_14_312
*683 FILLER_14_315
*684 FILLER_14_318
*685 FILLER_14_32
*686 FILLER_14_321
*687 FILLER_14_324
*688 FILLER_14_327
*689 FILLER_14_330
*690 FILLER_14_35
*691 FILLER_14_38
*692 FILLER_14_41
*693 FILLER_14_44
*694 FILLER_14_47
*695 FILLER_14_50
*696 FILLER_14_53
*697 FILLER_14_56
*698 FILLER_14_59
*699 FILLER_14_6
*700 FILLER_14_62
*701 FILLER_14_65
*702 FILLER_14_68
*703 FILLER_14_71
*704 FILLER_14_74
*705 FILLER_14_77
*706 FILLER_14_80
*707 FILLER_14_83
*708 FILLER_14_85
*709 FILLER_14_88
*710 FILLER_14_9
*711 FILLER_14_91
*712 FILLER_14_94
*713 FILLER_14_97
*714 FILLER_15_102
*715 FILLER_15_105
*716 FILLER_15_108
*717 FILLER_15_111
*718 FILLER_15_113
*719 FILLER_15_116
*720 FILLER_15_119
*721 FILLER_15_12
*722 FILLER_15_122
*723 FILLER_15_125
*724 FILLER_15_128
*725 FILLER_15_131
*726 FILLER_15_134
*727 FILLER_15_137
*728 FILLER_15_140
*729 FILLER_15_143
*730 FILLER_15_146
*731 FILLER_15_149
*732 FILLER_15_15
*733 FILLER_15_152
*734 FILLER_15_155
*735 FILLER_15_158
*736 FILLER_15_161
*737 FILLER_15_164
*738 FILLER_15_167
*739 FILLER_15_169
*740 FILLER_15_172
*741 FILLER_15_175
*742 FILLER_15_178
*743 FILLER_15_18
*744 FILLER_15_181
*745 FILLER_15_184
*746 FILLER_15_187
*747 FILLER_15_190
*748 FILLER_15_193
*749 FILLER_15_196
*750 FILLER_15_199
*751 FILLER_15_202
*752 FILLER_15_205
*753 FILLER_15_208
*754 FILLER_15_21
*755 FILLER_15_211
*756 FILLER_15_214
*757 FILLER_15_217
*758 FILLER_15_220
*759 FILLER_15_223
*760 FILLER_15_225
*761 FILLER_15_228
*762 FILLER_15_231
*763 FILLER_15_234
*764 FILLER_15_237
*765 FILLER_15_24
*766 FILLER_15_240
*767 FILLER_15_243
*768 FILLER_15_246
*769 FILLER_15_249
*770 FILLER_15_252
*771 FILLER_15_255
*772 FILLER_15_258
*773 FILLER_15_261
*774 FILLER_15_264
*775 FILLER_15_267
*776 FILLER_15_27
*777 FILLER_15_270
*778 FILLER_15_273
*779 FILLER_15_276
*780 FILLER_15_279
*781 FILLER_15_281
*782 FILLER_15_284
*783 FILLER_15_287
*784 FILLER_15_290
*785 FILLER_15_293
*786 FILLER_15_296
*787 FILLER_15_299
*788 FILLER_15_3
*789 FILLER_15_30
*790 FILLER_15_302
*791 FILLER_15_305
*792 FILLER_15_308
*793 FILLER_15_311
*794 FILLER_15_314
*795 FILLER_15_317
*796 FILLER_15_320
*797 FILLER_15_323
*798 FILLER_15_326
*799 FILLER_15_329
*800 FILLER_15_33
*801 FILLER_15_36
*802 FILLER_15_39
*803 FILLER_15_42
*804 FILLER_15_45
*805 FILLER_15_48
*806 FILLER_15_51
*807 FILLER_15_54
*808 FILLER_15_57
*809 FILLER_15_6
*810 FILLER_15_60
*811 FILLER_15_63
*812 FILLER_15_66
*813 FILLER_15_69
*814 FILLER_15_72
*815 FILLER_15_75
*816 FILLER_15_78
*817 FILLER_15_81
*818 FILLER_15_84
*819 FILLER_15_87
*820 FILLER_15_9
*821 FILLER_15_90
*822 FILLER_15_93
*823 FILLER_15_96
*824 FILLER_15_99
*825 FILLER_16_100
*826 FILLER_16_103
*827 FILLER_16_106
*828 FILLER_16_109
*829 FILLER_16_112
*830 FILLER_16_115
*831 FILLER_16_118
*832 FILLER_16_12
*833 FILLER_16_121
*834 FILLER_16_124
*835 FILLER_16_127
*836 FILLER_16_130
*837 FILLER_16_133
*838 FILLER_16_136
*839 FILLER_16_139
*840 FILLER_16_141
*841 FILLER_16_144
*842 FILLER_16_147
*843 FILLER_16_15
*844 FILLER_16_150
*845 FILLER_16_153
*846 FILLER_16_176
*847 FILLER_16_179
*848 FILLER_16_18
*849 FILLER_16_182
*850 FILLER_16_185
*851 FILLER_16_188
*852 FILLER_16_191
*853 FILLER_16_194
*854 FILLER_16_197
*855 FILLER_16_200
*856 FILLER_16_203
*857 FILLER_16_206
*858 FILLER_16_209
*859 FILLER_16_21
*860 FILLER_16_212
*861 FILLER_16_215
*862 FILLER_16_218
*863 FILLER_16_221
*864 FILLER_16_224
*865 FILLER_16_227
*866 FILLER_16_230
*867 FILLER_16_233
*868 FILLER_16_236
*869 FILLER_16_239
*870 FILLER_16_24
*871 FILLER_16_242
*872 FILLER_16_245
*873 FILLER_16_248
*874 FILLER_16_251
*875 FILLER_16_253
*876 FILLER_16_256
*877 FILLER_16_259
*878 FILLER_16_262
*879 FILLER_16_265
*880 FILLER_16_268
*881 FILLER_16_27
*882 FILLER_16_271
*883 FILLER_16_274
*884 FILLER_16_277
*885 FILLER_16_280
*886 FILLER_16_283
*887 FILLER_16_286
*888 FILLER_16_289
*889 FILLER_16_29
*890 FILLER_16_292
*891 FILLER_16_295
*892 FILLER_16_298
*893 FILLER_16_3
*894 FILLER_16_301
*895 FILLER_16_304
*896 FILLER_16_307
*897 FILLER_16_309
*898 FILLER_16_312
*899 FILLER_16_315
*900 FILLER_16_318
*901 FILLER_16_32
*902 FILLER_16_321
*903 FILLER_16_324
*904 FILLER_16_327
*905 FILLER_16_330
*906 FILLER_16_35
*907 FILLER_16_38
*908 FILLER_16_41
*909 FILLER_16_44
*910 FILLER_16_47
*911 FILLER_16_50
*912 FILLER_16_53
*913 FILLER_16_56
*914 FILLER_16_59
*915 FILLER_16_6
*916 FILLER_16_62
*917 FILLER_16_65
*918 FILLER_16_68
*919 FILLER_16_71
*920 FILLER_16_74
*921 FILLER_16_77
*922 FILLER_16_80
*923 FILLER_16_83
*924 FILLER_16_85
*925 FILLER_16_88
*926 FILLER_16_9
*927 FILLER_16_91
*928 FILLER_16_94
*929 FILLER_16_97
*930 FILLER_17_102
*931 FILLER_17_105
*932 FILLER_17_108
*933 FILLER_17_111
*934 FILLER_17_113
*935 FILLER_17_116
*936 FILLER_17_119
*937 FILLER_17_12
*938 FILLER_17_122
*939 FILLER_17_125
*940 FILLER_17_128
*941 FILLER_17_131
*942 FILLER_17_134
*943 FILLER_17_137
*944 FILLER_17_140
*945 FILLER_17_143
*946 FILLER_17_146
*947 FILLER_17_149
*948 FILLER_17_15
*949 FILLER_17_152
*950 FILLER_17_155
*951 FILLER_17_158
*952 FILLER_17_161
*953 FILLER_17_164
*954 FILLER_17_167
*955 FILLER_17_169
*956 FILLER_17_172
*957 FILLER_17_175
*958 FILLER_17_178
*959 FILLER_17_18
*960 FILLER_17_181
*961 FILLER_17_184
*962 FILLER_17_187
*963 FILLER_17_190
*964 FILLER_17_193
*965 FILLER_17_196
*966 FILLER_17_199
*967 FILLER_17_202
*968 FILLER_17_205
*969 FILLER_17_208
*970 FILLER_17_21
*971 FILLER_17_211
*972 FILLER_17_214
*973 FILLER_17_217
*974 FILLER_17_220
*975 FILLER_17_223
*976 FILLER_17_225
*977 FILLER_17_228
*978 FILLER_17_231
*979 FILLER_17_234
*980 FILLER_17_237
*981 FILLER_17_24
*982 FILLER_17_240
*983 FILLER_17_243
*984 FILLER_17_246
*985 FILLER_17_249
*986 FILLER_17_252
*987 FILLER_17_255
*988 FILLER_17_258
*989 FILLER_17_261
*990 FILLER_17_264
*991 FILLER_17_267
*992 FILLER_17_27
*993 FILLER_17_270
*994 FILLER_17_273
*995 FILLER_17_276
*996 FILLER_17_279
*997 FILLER_17_281
*998 FILLER_17_284
*999 FILLER_17_287
*1000 FILLER_17_290
*1001 FILLER_17_293
*1002 FILLER_17_296
*1003 FILLER_17_299
*1004 FILLER_17_3
*1005 FILLER_17_30
*1006 FILLER_17_302
*1007 FILLER_17_305
*1008 FILLER_17_308
*1009 FILLER_17_311
*1010 FILLER_17_314
*1011 FILLER_17_317
*1012 FILLER_17_320
*1013 FILLER_17_323
*1014 FILLER_17_326
*1015 FILLER_17_329
*1016 FILLER_17_33
*1017 FILLER_17_36
*1018 FILLER_17_39
*1019 FILLER_17_42
*1020 FILLER_17_45
*1021 FILLER_17_48
*1022 FILLER_17_51
*1023 FILLER_17_54
*1024 FILLER_17_57
*1025 FILLER_17_6
*1026 FILLER_17_60
*1027 FILLER_17_63
*1028 FILLER_17_66
*1029 FILLER_17_69
*1030 FILLER_17_72
*1031 FILLER_17_75
*1032 FILLER_17_78
*1033 FILLER_17_81
*1034 FILLER_17_84
*1035 FILLER_17_87
*1036 FILLER_17_9
*1037 FILLER_17_90
*1038 FILLER_17_93
*1039 FILLER_17_96
*1040 FILLER_17_99
*1041 FILLER_18_100
*1042 FILLER_18_103
*1043 FILLER_18_106
*1044 FILLER_18_109
*1045 FILLER_18_112
*1046 FILLER_18_115
*1047 FILLER_18_118
*1048 FILLER_18_12
*1049 FILLER_18_121
*1050 FILLER_18_124
*1051 FILLER_18_127
*1052 FILLER_18_130
*1053 FILLER_18_133
*1054 FILLER_18_136
*1055 FILLER_18_139
*1056 FILLER_18_141
*1057 FILLER_18_144
*1058 FILLER_18_147
*1059 FILLER_18_15
*1060 FILLER_18_150
*1061 FILLER_18_153
*1062 FILLER_18_156
*1063 FILLER_18_159
*1064 FILLER_18_162
*1065 FILLER_18_165
*1066 FILLER_18_168
*1067 FILLER_18_171
*1068 FILLER_18_174
*1069 FILLER_18_177
*1070 FILLER_18_18
*1071 FILLER_18_180
*1072 FILLER_18_183
*1073 FILLER_18_186
*1074 FILLER_18_189
*1075 FILLER_18_192
*1076 FILLER_18_195
*1077 FILLER_18_197
*1078 FILLER_18_200
*1079 FILLER_18_203
*1080 FILLER_18_206
*1081 FILLER_18_209
*1082 FILLER_18_21
*1083 FILLER_18_212
*1084 FILLER_18_215
*1085 FILLER_18_218
*1086 FILLER_18_221
*1087 FILLER_18_224
*1088 FILLER_18_227
*1089 FILLER_18_230
*1090 FILLER_18_233
*1091 FILLER_18_236
*1092 FILLER_18_239
*1093 FILLER_18_24
*1094 FILLER_18_242
*1095 FILLER_18_245
*1096 FILLER_18_248
*1097 FILLER_18_251
*1098 FILLER_18_253
*1099 FILLER_18_256
*1100 FILLER_18_259
*1101 FILLER_18_262
*1102 FILLER_18_265
*1103 FILLER_18_268
*1104 FILLER_18_27
*1105 FILLER_18_271
*1106 FILLER_18_274
*1107 FILLER_18_277
*1108 FILLER_18_280
*1109 FILLER_18_283
*1110 FILLER_18_286
*1111 FILLER_18_289
*1112 FILLER_18_29
*1113 FILLER_18_292
*1114 FILLER_18_295
*1115 FILLER_18_298
*1116 FILLER_18_3
*1117 FILLER_18_301
*1118 FILLER_18_304
*1119 FILLER_18_307
*1120 FILLER_18_309
*1121 FILLER_18_312
*1122 FILLER_18_315
*1123 FILLER_18_318
*1124 FILLER_18_32
*1125 FILLER_18_321
*1126 FILLER_18_324
*1127 FILLER_18_327
*1128 FILLER_18_330
*1129 FILLER_18_35
*1130 FILLER_18_38
*1131 FILLER_18_41
*1132 FILLER_18_44
*1133 FILLER_18_47
*1134 FILLER_18_50
*1135 FILLER_18_53
*1136 FILLER_18_56
*1137 FILLER_18_59
*1138 FILLER_18_6
*1139 FILLER_18_62
*1140 FILLER_18_65
*1141 FILLER_18_68
*1142 FILLER_18_71
*1143 FILLER_18_74
*1144 FILLER_18_77
*1145 FILLER_18_80
*1146 FILLER_18_83
*1147 FILLER_18_85
*1148 FILLER_18_88
*1149 FILLER_18_9
*1150 FILLER_18_91
*1151 FILLER_18_94
*1152 FILLER_18_97
*1153 FILLER_19_102
*1154 FILLER_19_105
*1155 FILLER_19_108
*1156 FILLER_19_111
*1157 FILLER_19_113
*1158 FILLER_19_116
*1159 FILLER_19_119
*1160 FILLER_19_12
*1161 FILLER_19_122
*1162 FILLER_19_125
*1163 FILLER_19_128
*1164 FILLER_19_131
*1165 FILLER_19_134
*1166 FILLER_19_137
*1167 FILLER_19_140
*1168 FILLER_19_143
*1169 FILLER_19_146
*1170 FILLER_19_149
*1171 FILLER_19_15
*1172 FILLER_19_152
*1173 FILLER_19_155
*1174 FILLER_19_158
*1175 FILLER_19_161
*1176 FILLER_19_164
*1177 FILLER_19_167
*1178 FILLER_19_169
*1179 FILLER_19_172
*1180 FILLER_19_175
*1181 FILLER_19_178
*1182 FILLER_19_18
*1183 FILLER_19_181
*1184 FILLER_19_184
*1185 FILLER_19_187
*1186 FILLER_19_190
*1187 FILLER_19_193
*1188 FILLER_19_196
*1189 FILLER_19_199
*1190 FILLER_19_202
*1191 FILLER_19_205
*1192 FILLER_19_208
*1193 FILLER_19_21
*1194 FILLER_19_211
*1195 FILLER_19_214
*1196 FILLER_19_217
*1197 FILLER_19_220
*1198 FILLER_19_223
*1199 FILLER_19_225
*1200 FILLER_19_228
*1201 FILLER_19_231
*1202 FILLER_19_234
*1203 FILLER_19_237
*1204 FILLER_19_24
*1205 FILLER_19_240
*1206 FILLER_19_243
*1207 FILLER_19_246
*1208 FILLER_19_249
*1209 FILLER_19_252
*1210 FILLER_19_255
*1211 FILLER_19_258
*1212 FILLER_19_261
*1213 FILLER_19_264
*1214 FILLER_19_267
*1215 FILLER_19_27
*1216 FILLER_19_270
*1217 FILLER_19_273
*1218 FILLER_19_276
*1219 FILLER_19_279
*1220 FILLER_19_281
*1221 FILLER_19_284
*1222 FILLER_19_287
*1223 FILLER_19_290
*1224 FILLER_19_293
*1225 FILLER_19_296
*1226 FILLER_19_299
*1227 FILLER_19_3
*1228 FILLER_19_30
*1229 FILLER_19_302
*1230 FILLER_19_305
*1231 FILLER_19_308
*1232 FILLER_19_311
*1233 FILLER_19_314
*1234 FILLER_19_317
*1235 FILLER_19_320
*1236 FILLER_19_323
*1237 FILLER_19_326
*1238 FILLER_19_329
*1239 FILLER_19_33
*1240 FILLER_19_36
*1241 FILLER_19_39
*1242 FILLER_19_42
*1243 FILLER_19_45
*1244 FILLER_19_48
*1245 FILLER_19_51
*1246 FILLER_19_54
*1247 FILLER_19_57
*1248 FILLER_19_6
*1249 FILLER_19_60
*1250 FILLER_19_63
*1251 FILLER_19_66
*1252 FILLER_19_69
*1253 FILLER_19_72
*1254 FILLER_19_75
*1255 FILLER_19_78
*1256 FILLER_19_81
*1257 FILLER_19_84
*1258 FILLER_19_87
*1259 FILLER_19_9
*1260 FILLER_19_90
*1261 FILLER_19_93
*1262 FILLER_19_96
*1263 FILLER_19_99
*1264 FILLER_1_102
*1265 FILLER_1_105
*1266 FILLER_1_108
*1267 FILLER_1_111
*1268 FILLER_1_113
*1269 FILLER_1_116
*1270 FILLER_1_119
*1271 FILLER_1_12
*1272 FILLER_1_122
*1273 FILLER_1_125
*1274 FILLER_1_128
*1275 FILLER_1_131
*1276 FILLER_1_134
*1277 FILLER_1_15
*1278 FILLER_1_159
*1279 FILLER_1_169
*1280 FILLER_1_18
*1281 FILLER_1_192
*1282 FILLER_1_195
*1283 FILLER_1_198
*1284 FILLER_1_201
*1285 FILLER_1_204
*1286 FILLER_1_207
*1287 FILLER_1_21
*1288 FILLER_1_210
*1289 FILLER_1_213
*1290 FILLER_1_216
*1291 FILLER_1_219
*1292 FILLER_1_222
*1293 FILLER_1_225
*1294 FILLER_1_228
*1295 FILLER_1_231
*1296 FILLER_1_234
*1297 FILLER_1_237
*1298 FILLER_1_24
*1299 FILLER_1_240
*1300 FILLER_1_243
*1301 FILLER_1_246
*1302 FILLER_1_249
*1303 FILLER_1_252
*1304 FILLER_1_255
*1305 FILLER_1_258
*1306 FILLER_1_261
*1307 FILLER_1_264
*1308 FILLER_1_267
*1309 FILLER_1_27
*1310 FILLER_1_270
*1311 FILLER_1_273
*1312 FILLER_1_276
*1313 FILLER_1_279
*1314 FILLER_1_281
*1315 FILLER_1_284
*1316 FILLER_1_287
*1317 FILLER_1_290
*1318 FILLER_1_293
*1319 FILLER_1_296
*1320 FILLER_1_299
*1321 FILLER_1_3
*1322 FILLER_1_30
*1323 FILLER_1_302
*1324 FILLER_1_305
*1325 FILLER_1_308
*1326 FILLER_1_311
*1327 FILLER_1_314
*1328 FILLER_1_317
*1329 FILLER_1_320
*1330 FILLER_1_323
*1331 FILLER_1_326
*1332 FILLER_1_329
*1333 FILLER_1_33
*1334 FILLER_1_36
*1335 FILLER_1_39
*1336 FILLER_1_42
*1337 FILLER_1_45
*1338 FILLER_1_48
*1339 FILLER_1_51
*1340 FILLER_1_54
*1341 FILLER_1_57
*1342 FILLER_1_6
*1343 FILLER_1_60
*1344 FILLER_1_63
*1345 FILLER_1_66
*1346 FILLER_1_69
*1347 FILLER_1_72
*1348 FILLER_1_75
*1349 FILLER_1_78
*1350 FILLER_1_81
*1351 FILLER_1_84
*1352 FILLER_1_87
*1353 FILLER_1_9
*1354 FILLER_1_90
*1355 FILLER_1_93
*1356 FILLER_1_96
*1357 FILLER_1_99
*1358 FILLER_20_100
*1359 FILLER_20_103
*1360 FILLER_20_106
*1361 FILLER_20_109
*1362 FILLER_20_112
*1363 FILLER_20_115
*1364 FILLER_20_118
*1365 FILLER_20_12
*1366 FILLER_20_121
*1367 FILLER_20_124
*1368 FILLER_20_127
*1369 FILLER_20_130
*1370 FILLER_20_133
*1371 FILLER_20_136
*1372 FILLER_20_139
*1373 FILLER_20_141
*1374 FILLER_20_144
*1375 FILLER_20_147
*1376 FILLER_20_15
*1377 FILLER_20_150
*1378 FILLER_20_153
*1379 FILLER_20_156
*1380 FILLER_20_159
*1381 FILLER_20_162
*1382 FILLER_20_165
*1383 FILLER_20_168
*1384 FILLER_20_171
*1385 FILLER_20_174
*1386 FILLER_20_177
*1387 FILLER_20_18
*1388 FILLER_20_180
*1389 FILLER_20_183
*1390 FILLER_20_186
*1391 FILLER_20_189
*1392 FILLER_20_192
*1393 FILLER_20_195
*1394 FILLER_20_197
*1395 FILLER_20_200
*1396 FILLER_20_203
*1397 FILLER_20_206
*1398 FILLER_20_209
*1399 FILLER_20_21
*1400 FILLER_20_212
*1401 FILLER_20_215
*1402 FILLER_20_218
*1403 FILLER_20_221
*1404 FILLER_20_224
*1405 FILLER_20_227
*1406 FILLER_20_230
*1407 FILLER_20_233
*1408 FILLER_20_236
*1409 FILLER_20_239
*1410 FILLER_20_24
*1411 FILLER_20_242
*1412 FILLER_20_245
*1413 FILLER_20_248
*1414 FILLER_20_251
*1415 FILLER_20_253
*1416 FILLER_20_256
*1417 FILLER_20_259
*1418 FILLER_20_262
*1419 FILLER_20_265
*1420 FILLER_20_268
*1421 FILLER_20_27
*1422 FILLER_20_271
*1423 FILLER_20_274
*1424 FILLER_20_277
*1425 FILLER_20_280
*1426 FILLER_20_283
*1427 FILLER_20_286
*1428 FILLER_20_289
*1429 FILLER_20_29
*1430 FILLER_20_292
*1431 FILLER_20_295
*1432 FILLER_20_298
*1433 FILLER_20_3
*1434 FILLER_20_301
*1435 FILLER_20_304
*1436 FILLER_20_307
*1437 FILLER_20_309
*1438 FILLER_20_312
*1439 FILLER_20_315
*1440 FILLER_20_318
*1441 FILLER_20_32
*1442 FILLER_20_321
*1443 FILLER_20_324
*1444 FILLER_20_327
*1445 FILLER_20_330
*1446 FILLER_20_35
*1447 FILLER_20_38
*1448 FILLER_20_41
*1449 FILLER_20_44
*1450 FILLER_20_47
*1451 FILLER_20_50
*1452 FILLER_20_53
*1453 FILLER_20_56
*1454 FILLER_20_59
*1455 FILLER_20_6
*1456 FILLER_20_62
*1457 FILLER_20_65
*1458 FILLER_20_68
*1459 FILLER_20_71
*1460 FILLER_20_74
*1461 FILLER_20_77
*1462 FILLER_20_80
*1463 FILLER_20_83
*1464 FILLER_20_85
*1465 FILLER_20_88
*1466 FILLER_20_9
*1467 FILLER_20_91
*1468 FILLER_20_94
*1469 FILLER_20_97
*1470 FILLER_21_102
*1471 FILLER_21_105
*1472 FILLER_21_108
*1473 FILLER_21_111
*1474 FILLER_21_113
*1475 FILLER_21_116
*1476 FILLER_21_119
*1477 FILLER_21_12
*1478 FILLER_21_122
*1479 FILLER_21_125
*1480 FILLER_21_128
*1481 FILLER_21_131
*1482 FILLER_21_134
*1483 FILLER_21_137
*1484 FILLER_21_140
*1485 FILLER_21_143
*1486 FILLER_21_146
*1487 FILLER_21_149
*1488 FILLER_21_15
*1489 FILLER_21_152
*1490 FILLER_21_155
*1491 FILLER_21_158
*1492 FILLER_21_161
*1493 FILLER_21_164
*1494 FILLER_21_167
*1495 FILLER_21_169
*1496 FILLER_21_172
*1497 FILLER_21_175
*1498 FILLER_21_178
*1499 FILLER_21_18
*1500 FILLER_21_181
*1501 FILLER_21_184
*1502 FILLER_21_187
*1503 FILLER_21_190
*1504 FILLER_21_193
*1505 FILLER_21_196
*1506 FILLER_21_199
*1507 FILLER_21_202
*1508 FILLER_21_205
*1509 FILLER_21_208
*1510 FILLER_21_21
*1511 FILLER_21_211
*1512 FILLER_21_214
*1513 FILLER_21_217
*1514 FILLER_21_220
*1515 FILLER_21_223
*1516 FILLER_21_225
*1517 FILLER_21_228
*1518 FILLER_21_231
*1519 FILLER_21_234
*1520 FILLER_21_237
*1521 FILLER_21_24
*1522 FILLER_21_240
*1523 FILLER_21_243
*1524 FILLER_21_246
*1525 FILLER_21_249
*1526 FILLER_21_252
*1527 FILLER_21_255
*1528 FILLER_21_258
*1529 FILLER_21_261
*1530 FILLER_21_264
*1531 FILLER_21_267
*1532 FILLER_21_27
*1533 FILLER_21_270
*1534 FILLER_21_273
*1535 FILLER_21_276
*1536 FILLER_21_279
*1537 FILLER_21_281
*1538 FILLER_21_284
*1539 FILLER_21_287
*1540 FILLER_21_290
*1541 FILLER_21_293
*1542 FILLER_21_296
*1543 FILLER_21_299
*1544 FILLER_21_3
*1545 FILLER_21_30
*1546 FILLER_21_302
*1547 FILLER_21_305
*1548 FILLER_21_308
*1549 FILLER_21_311
*1550 FILLER_21_314
*1551 FILLER_21_317
*1552 FILLER_21_320
*1553 FILLER_21_323
*1554 FILLER_21_326
*1555 FILLER_21_329
*1556 FILLER_21_33
*1557 FILLER_21_36
*1558 FILLER_21_39
*1559 FILLER_21_42
*1560 FILLER_21_45
*1561 FILLER_21_48
*1562 FILLER_21_51
*1563 FILLER_21_54
*1564 FILLER_21_57
*1565 FILLER_21_6
*1566 FILLER_21_60
*1567 FILLER_21_63
*1568 FILLER_21_66
*1569 FILLER_21_69
*1570 FILLER_21_72
*1571 FILLER_21_75
*1572 FILLER_21_78
*1573 FILLER_21_81
*1574 FILLER_21_84
*1575 FILLER_21_87
*1576 FILLER_21_9
*1577 FILLER_21_90
*1578 FILLER_21_93
*1579 FILLER_21_96
*1580 FILLER_21_99
*1581 FILLER_22_100
*1582 FILLER_22_103
*1583 FILLER_22_106
*1584 FILLER_22_109
*1585 FILLER_22_112
*1586 FILLER_22_115
*1587 FILLER_22_118
*1588 FILLER_22_12
*1589 FILLER_22_121
*1590 FILLER_22_124
*1591 FILLER_22_127
*1592 FILLER_22_130
*1593 FILLER_22_133
*1594 FILLER_22_136
*1595 FILLER_22_139
*1596 FILLER_22_141
*1597 FILLER_22_144