*SPEF "ieee 1481-1999"
*DESIGN "tiny_tonegen"
*DATE "22:07:24 Tuesday December 02, 2025"
*VENDOR "The OpenROAD Project"
*PROGRAM "OpenROAD"
*VERSION "v2.0-16235-gedf00dff9"
*DESIGN_FLOW "NAME_SCOPE LOCAL" "PIN_CAP NONE"
*DIVIDER /
*DELIMITER :
*BUS_DELIMITER []
*T_UNIT 1 NS
*C_UNIT 1 PF
*R_UNIT 1 OHM
*L_UNIT 1 HENRY

*NAME_MAP
*3 address_in[0]
*4 address_in[1]
*5 address_in[2]
*6 clk
*7 data_in[0]
*8 data_in[1]
*9 data_in[2]
*10 data_in[3]
*11 data_in[4]
*12 ena
*13 rst_n
*14 signal_bit_out
*15 write_strobe_in
*16 _000_
*17 _001_
*18 _002_
*19 _003_
*20 _004_
*21 _008_
*22 _009_
*23 _010_
*24 _011_
*25 _012_
*26 _013_
*27 _014_
*28 _015_
*29 _016_
*30 _017_
*31 _018_
*32 _019_
*33 _020_
*34 _021_
*35 _022_
*36 _023_
*37 _024_
*38 _025_
*39 _026_
*40 _027_
*41 _028_
*42 _029_
*43 _030_
*44 _031_
*45 _032_
*46 _033_
*47 _034_
*48 _035_
*49 _036_
*50 _037_
*51 _038_
*52 _039_
*53 _040_
*54 _041_
*55 _042_
*56 _043_
*57 _044_
*58 _045_
*59 _046_
*60 _047_
*61 _048_
*62 _049_
*63 _050_
*64 _051_
*65 _052_
*66 _053_
*67 _054_
*68 _055_
*69 _056_
*70 _057_
*71 _058_
*72 _059_
*73 _060_
*74 _061_
*75 _062_
*76 _063_
*77 _064_
*78 _065_
*79 _066_
*80 _067_
*81 _068_
*82 _069_
*83 _070_
*84 _071_
*85 _072_
*86 _073_
*87 _074_
*88 _075_
*89 _076_
*90 _077_
*91 _078_
*92 _079_
*93 _080_
*94 _081_
*95 _082_
*96 _083_
*97 _084_
*98 _085_
*99 _086_
*100 _087_
*101 _088_
*102 _089_
*103 _090_
*104 _091_
*105 _092_
*106 _093_
*107 _094_
*108 _095_
*109 _096_
*110 _097_
*111 _098_
*112 _099_
*113 _100_
*114 _101_
*115 _102_
*116 _103_
*117 _104_
*118 _105_
*119 _106_
*120 _107_
*121 _108_
*122 _109_
*123 _110_
*124 _111_
*125 _112_
*126 _113_
*127 _114_
*128 _115_
*129 _116_
*130 _117_
*131 _118_
*132 _119_
*133 _120_
*134 _121_
*135 _122_
*136 _123_
*137 _124_
*138 _125_
*139 _126_
*140 _127_
*141 _128_
*142 _129_
*143 _130_
*144 _131_
*145 _132_
*146 _133_
*147 _134_
*148 _135_
*149 _136_
*150 _137_
*151 _138_
*152 _139_
*153 _140_
*154 _141_
*155 _142_
*156 _143_
*157 _144_
*158 _145_
*159 _146_
*160 _147_
*161 _148_
*162 _149_
*163 _150_
*164 _151_
*165 _152_
*166 _153_
*167 _154_
*168 _155_
*169 _156_
*170 _157_
*171 _158_
*172 _159_
*173 _160_
*174 _161_
*175 _162_
*176 _163_
*177 _164_
*178 _165_
*179 _166_
*180 _167_
*181 _168_
*182 _169_
*183 _170_
*184 _171_
*185 _172_
*186 _173_
*187 _174_
*188 _175_
*189 _176_
*190 _177_
*191 _178_
*192 _179_
*193 _180_
*194 _181_
*195 _182_
*196 _183_
*197 _184_
*198 _185_
*199 _186_
*200 _187_
*201 _188_
*202 _189_
*203 _190_
*204 _191_
*205 _192_
*206 _193_
*207 _194_
*208 _195_
*209 _196_
*210 _197_
*211 _198_
*212 _199_
*213 _200_
*214 _201_
*215 _202_
*216 _203_
*217 _204_
*218 _205_
*219 _206_
*220 _207_
*221 _208_
*222 _209_
*223 _210_
*224 _211_
*225 _212_
*226 _213_
*227 _214_
*228 _215_
*229 _216_
*230 _217_
*231 _218_
*232 _219_
*233 _220_
*234 _221_
*235 _222_
*236 _223_
*237 _224_
*238 _225_
*239 _226_
*240 _227_
*241 _228_
*242 _229_
*243 _230_
*244 _231_
*245 _232_
*246 _233_
*247 _234_
*248 _235_
*249 _236_
*250 _237_
*251 _238_
*252 _239_
*253 _240_
*254 _241_
*255 _242_
*256 _243_
*257 _244_
*258 _245_
*259 _246_
*260 _247_
*261 _248_
*262 _249_
*263 _250_
*264 _251_
*265 _252_
*266 _253_
*267 _254_
*268 _255_
*269 _256_
*270 _257_
*271 _258_
*272 _259_
*273 _260_
*274 _261_
*275 _262_
*276 _263_
*277 _264_
*278 _265_
*279 _266_
*280 _267_
*281 _268_
*282 _269_
*283 _270_
*284 _271_
*285 _272_
*286 _273_
*287 _274_
*288 _275_
*289 _276_
*290 _277_
*291 _278_
*292 _279_
*293 _280_
*294 _281_
*295 _282_
*296 _283_
*297 _284_
*298 _285_
*299 _286_
*300 _287_
*301 _288_
*302 _289_
*303 _290_
*304 _291_
*305 _292_
*306 _293_
*307 _294_
*308 _295_
*309 _296_
*310 _297_
*311 _298_
*312 _299_
*313 _300_
*314 _301_
*315 _302_
*316 _303_
*317 _304_
*318 _305_
*319 _306_
*320 _307_
*321 _308_
*322 _309_
*323 _310_
*324 _311_
*325 _312_
*326 _313_
*327 _314_
*328 _315_
*329 _316_
*330 _317_
*331 _318_
*332 _319_
*333 _320_
*334 _321_
*335 _322_
*336 clk_scaled
*337 clk_scaler\.counter\[0\]
*338 clk_scaler\.counter\[1\]
*339 clk_scaler\.counter\[2\]
*340 clk_scaler\.counter\[3\]
*341 clk_scaler\.counter\[4\]
*342 clk_scaler\.counter\[5\]
*343 clk_scaler\.counter\[6\]
*344 clk_scaler\.counter\[7\]
*345 clknet_0_clk
*346 clknet_1_0__leaf_clk
*347 clknet_1_1__leaf_clk
*348 net1
*349 net10
*350 net11
*351 net12
*352 net13
*353 net14
*354 net15
*355 net16
*356 net17
*357 net18
*358 net19
*359 net2
*360 net20
*361 net21
*362 net22
*363 net23
*364 net24
*365 net25
*366 net26
*367 net27
*368 net28
*369 net29
*370 net3
*371 net30
*372 net31
*373 net32
*374 net33
*375 net34
*376 net35
*377 net36
*378 net37
*379 net4
*380 net5
*381 net6
*382 net7
*383 net8
*384 net9
*385 signal_gen\.enableA
*386 signal_gen\.enableN
*387 signal_gen\.envA\[0\]
*388 signal_gen\.envA\[1\]
*389 signal_gen\.envA\[2\]
*390 signal_gen\.envA\[3\]
*391 signal_gen\.envA_gen\.state\[0\]
*392 signal_gen\.envA_gen\.state\[1\]
*393 signal_gen\.envA_gen\.timer\[0\]
*394 signal_gen\.envA_gen\.timer\[1\]
*395 signal_gen\.envA_gen\.timer\[2\]
*396 signal_gen\.envA_gen\.timer\[3\]
*397 signal_gen\.mix\.a_val\[0\]
*398 signal_gen\.mix\.a_val\[1\]
*399 signal_gen\.mix\.a_val\[2\]
*400 signal_gen\.mix\.a_val\[3\]
*401 signal_gen\.mix\.a_val\[4\]
*402 signal_gen\.mix\.mixout\[2\]
*403 signal_gen\.mix\.mixout\[3\]
*404 signal_gen\.mix\.mixout\[4\]
*405 signal_gen\.mix\.mixout\[5\]
*406 signal_gen\.mix\.mixout\[6\]
*407 signal_gen\.mix\.mixout\[7\]
*408 signal_gen\.mix\.n_val\[1\]
*409 signal_gen\.mix\.n_val\[2\]
*410 signal_gen\.mix\.n_val\[3\]
*411 signal_gen\.mix\.n_val\[4\]
*412 signal_gen\.mix\.noise
*413 signal_gen\.mix\.started
*414 signal_gen\.mix\.sum\[0\]
*415 signal_gen\.mix\.sum\[1\]
*416 signal_gen\.mix\.sum\[2\]
*417 signal_gen\.mix\.sum\[3\]
*418 signal_gen\.mix\.sum\[4\]
*419 signal_gen\.mix\.sum\[5\]
*420 signal_gen\.mix\.waveA
*421 signal_gen\.noise_gen\.feedback
*422 signal_gen\.noise_gen\.noise_reg\[0\]
*423 signal_gen\.noise_gen\.noise_reg\[10\]
*424 signal_gen\.noise_gen\.noise_reg\[11\]
*425 signal_gen\.noise_gen\.noise_reg\[12\]
*426 signal_gen\.noise_gen\.noise_reg\[13\]
*427 signal_gen\.noise_gen\.noise_reg\[2\]
*428 signal_gen\.noise_gen\.noise_reg\[3\]
*429 signal_gen\.noise_gen\.noise_reg\[4\]
*430 signal_gen\.noise_gen\.noise_reg\[5\]
*431 signal_gen\.noise_gen\.noise_reg\[6\]
*432 signal_gen\.noise_gen\.noise_reg\[7\]
*433 signal_gen\.noise_gen\.noise_reg\[8\]
*434 signal_gen\.noise_gen\.noise_reg\[9\]
*435 signal_gen\.periodA\[0\]
*436 signal_gen\.periodA\[1\]
*437 signal_gen\.periodA\[2\]
*438 signal_gen\.periodA\[3\]
*439 signal_gen\.periodA\[4\]
*440 signal_gen\.pwmGen\.clk_cnt\[0\]
*441 signal_gen\.pwmGen\.clk_cnt\[1\]
*442 signal_gen\.pwmGen\.clk_cnt\[2\]
*443 signal_gen\.pwmGen\.clk_cnt\[3\]
*444 signal_gen\.pwmGen\.clk_cnt\[4\]
*445 signal_gen\.pwmGen\.clk_cnt\[5\]
*446 signal_gen\.pwmGen\.clk_cnt\[6\]
*447 signal_gen\.pwmGen\.clk_cnt\[7\]
*448 signal_gen\.tonegenA\.counter\[0\]
*449 signal_gen\.tonegenA\.counter\[1\]
*450 signal_gen\.tonegenA\.counter\[2\]
*451 signal_gen\.tonegenA\.counter\[3\]
*452 signal_gen\.tonegenA\.counter\[4\]
*453 signal_gen\.tonegenA\.counter\[5\]
*454 signal_gen\.tonegenA\.counter\[6\]
*455 signal_gen\.tonegenA\.counter\[7\]
*456 signal_gen\.volA\[0\]
*457 signal_gen\.volA\[1\]
*458 signal_gen\.volA\[2\]
*459 signal_gen\.volA\[3\]
*460 signal_gen\.volN\[0\]
*461 signal_gen\.volN\[1\]
*462 signal_gen\.volN\[2\]
*463 signal_gen\.volN\[3\]
*464 FILLER_0_101
*465 FILLER_0_110
*466 FILLER_0_126
*467 FILLER_0_134
*468 FILLER_0_138
*469 FILLER_0_172
*470 FILLER_0_2
*471 FILLER_0_206
*472 FILLER_0_240
*473 FILLER_0_274
*474 FILLER_0_308
*475 FILLER_0_342
*476 FILLER_0_36
*477 FILLER_0_70
*478 FILLER_0_86
*479 FILLER_0_88
*480 FILLER_10_117
*481 FILLER_10_133
*482 FILLER_10_137
*483 FILLER_10_139
*484 FILLER_10_153
*485 FILLER_10_161
*486 FILLER_10_163
*487 FILLER_10_172
*488 FILLER_10_174
*489 FILLER_10_182
*490 FILLER_10_196
*491 FILLER_10_204
*492 FILLER_10_209
*493 FILLER_10_225
*494 FILLER_10_229
*495 FILLER_10_231
*496 FILLER_10_237
*497 FILLER_10_247
*498 FILLER_10_263
*499 FILLER_10_311
*500 FILLER_10_317
*501 FILLER_10_333
*502 FILLER_10_342
*503 FILLER_10_37
*504 FILLER_10_84
*505 FILLER_10_98
*506 FILLER_11_10
*507 FILLER_11_125
*508 FILLER_11_133
*509 FILLER_11_137
*510 FILLER_11_139
*511 FILLER_11_149
*512 FILLER_11_156
*513 FILLER_11_172
*514 FILLER_11_180
*515 FILLER_11_184
*516 FILLER_11_191
*517 FILLER_11_207
*518 FILLER_11_209
*519 FILLER_11_212
*520 FILLER_11_216
*521 FILLER_11_230
*522 FILLER_11_265
*523 FILLER_11_273
*524 FILLER_11_277
*525 FILLER_11_279
*526 FILLER_11_282
*527 FILLER_11_290
*528 FILLER_11_307
*529 FILLER_11_309
*530 FILLER_11_35
*531 FILLER_11_39
*532 FILLER_11_41
*533 FILLER_11_72
*534 FILLER_11_8
*535 FILLER_11_88
*536 FILLER_11_92
*537 FILLER_12_107
*538 FILLER_12_109
*539 FILLER_12_122
*540 FILLER_12_150
*541 FILLER_12_162
*542 FILLER_12_166
*543 FILLER_12_2
*544 FILLER_12_206
*545 FILLER_12_214
*546 FILLER_12_216
*547 FILLER_12_251
*548 FILLER_12_267
*549 FILLER_12_269
*550 FILLER_12_299
*551 FILLER_12_301
*552 FILLER_12_306
*553 FILLER_12_314
*554 FILLER_12_317
*555 FILLER_12_319
*556 FILLER_12_33
*557 FILLER_12_336
*558 FILLER_12_340
*559 FILLER_12_342
*560 FILLER_12_45
*561 FILLER_12_61
*562 FILLER_12_97
*563 FILLER_13_109
*564 FILLER_13_113
*565 FILLER_13_183
*566 FILLER_13_185
*567 FILLER_13_191
*568 FILLER_13_199
*569 FILLER_13_203
*570 FILLER_13_205
*571 FILLER_13_237
*572 FILLER_13_253
*573 FILLER_13_272
*574 FILLER_13_282
*575 FILLER_13_290
*576 FILLER_13_294
*577 FILLER_13_333
*578 FILLER_13_341
*579 FILLER_13_48
*580 FILLER_13_64
*581 FILLER_13_72
*582 FILLER_13_8
*583 FILLER_13_86
*584 FILLER_13_88
*585 FILLER_13_97
*586 FILLER_14_103
*587 FILLER_14_107
*588 FILLER_14_123
*589 FILLER_14_127
*590 FILLER_14_129
*591 FILLER_14_165
*592 FILLER_14_171
*593 FILLER_14_177
*594 FILLER_14_181
*595 FILLER_14_196
*596 FILLER_14_2
*597 FILLER_14_222
*598 FILLER_14_238
*599 FILLER_14_242
*600 FILLER_14_244
*601 FILLER_14_247
*602 FILLER_14_276
*603 FILLER_14_292
*604 FILLER_14_314
*605 FILLER_14_341
*606 FILLER_14_37
*607 FILLER_14_73
*608 FILLER_14_77
*609 FILLER_14_83
*610 FILLER_14_99
*611 FILLER_15_126
*612 FILLER_15_134
*613 FILLER_15_138
*614 FILLER_15_160
*615 FILLER_15_176
*616 FILLER_15_178
*617 FILLER_15_2
*618 FILLER_15_202
*619 FILLER_15_224
*620 FILLER_15_255
*621 FILLER_15_271
*622 FILLER_15_279
*623 FILLER_15_282
*624 FILLER_15_321
*625 FILLER_15_337
*626 FILLER_15_341
*627 FILLER_15_39
*628 FILLER_15_41
*629 FILLER_15_60
*630 FILLER_15_68
*631 FILLER_15_72
*632 FILLER_15_88
*633 FILLER_15_96
*634 FILLER_16_136
*635 FILLER_16_156
*636 FILLER_16_171
*637 FILLER_16_177
*638 FILLER_16_181
*639 FILLER_16_183
*640 FILLER_16_189
*641 FILLER_16_197
*642 FILLER_16_201
*643 FILLER_16_244
*644 FILLER_16_252
*645 FILLER_16_282
*646 FILLER_16_313
*647 FILLER_16_325
*648 FILLER_16_341
*649 FILLER_16_45
*650 FILLER_16_47
*651 FILLER_16_60
*652 FILLER_16_91
*653 FILLER_17_100
*654 FILLER_17_118
*655 FILLER_17_134
*656 FILLER_17_138
*657 FILLER_17_180
*658 FILLER_17_188
*659 FILLER_17_190
*660 FILLER_17_2
*661 FILLER_17_200
*662 FILLER_17_204
*663 FILLER_17_221
*664 FILLER_17_229
*665 FILLER_17_233
*666 FILLER_17_274
*667 FILLER_17_278
*668 FILLER_17_282
*669 FILLER_17_298
*670 FILLER_17_306
*671 FILLER_17_308
*672 FILLER_17_38
*673 FILLER_17_69
*674 FILLER_17_72
*675 FILLER_17_98
*676 FILLER_18_10
*677 FILLER_18_103
*678 FILLER_18_112
*679 FILLER_18_144
*680 FILLER_18_177
*681 FILLER_18_181
*682 FILLER_18_183
*683 FILLER_18_213
*684 FILLER_18_231
*685 FILLER_18_239
*686 FILLER_18_243
*687 FILLER_18_281
*688 FILLER_18_297
*689 FILLER_18_30
*690 FILLER_18_301
*691 FILLER_18_311
*692 FILLER_18_322
*693 FILLER_18_338
*694 FILLER_18_34
*695 FILLER_18_342
*696 FILLER_18_37
*697 FILLER_18_53
*698 FILLER_18_65
*699 FILLER_18_74
*700 FILLER_18_90
*701 FILLER_18_99
*702 FILLER_19_121
*703 FILLER_19_130
*704 FILLER_19_138
*705 FILLER_19_156
*706 FILLER_19_164
*707 FILLER_19_166
*708 FILLER_19_171
*709 FILLER_19_187
*710 FILLER_19_191
*711 FILLER_19_197
*712 FILLER_19_2
*713 FILLER_19_205
*714 FILLER_19_209
*715 FILLER_19_224
*716 FILLER_19_228
*717 FILLER_19_282
*718 FILLER_19_298
*719 FILLER_19_302
*720 FILLER_19_32
*721 FILLER_19_337
*722 FILLER_19_341
*723 FILLER_19_40
*724 FILLER_19_52
*725 FILLER_19_68
*726 FILLER_19_72
*727 FILLER_19_88
*728 FILLER_1_117
*729 FILLER_1_125
*730 FILLER_1_129
*731 FILLER_1_131
*732 FILLER_1_171
*733 FILLER_1_2
*734 FILLER_1_203
*735 FILLER_1_207
*736 FILLER_1_209
*737 FILLER_1_212
*738 FILLER_1_276
*739 FILLER_1_282
*740 FILLER_1_314
*741 FILLER_1_330
*742 FILLER_1_338
*743 FILLER_1_34
*744 FILLER_1_342
*745 FILLER_1_38
*746 FILLER_1_40
*747 FILLER_1_72
*748 FILLER_20_107
*749 FILLER_20_12
*750 FILLER_20_174
*751 FILLER_20_191
*752 FILLER_20_195
*753 FILLER_20_197
*754 FILLER_20_237
*755 FILLER_20_247
*756 FILLER_20_249
*757 FILLER_20_265
*758 FILLER_20_269
*759 FILLER_20_271
*760 FILLER_20_314
*761 FILLER_20_325
*762 FILLER_20_37
*763 FILLER_20_45
*764 FILLER_20_8
*765 FILLER_21_101
*766 FILLER_21_130
*767 FILLER_21_138
*768 FILLER_21_14
*769 FILLER_21_152
*770 FILLER_21_156
*771 FILLER_21_192
*772 FILLER_21_208
*773 FILLER_21_212
*774 FILLER_21_221
*775 FILLER_21_229
*776 FILLER_21_231
*777 FILLER_21_24
*778 FILLER_21_240
*779 FILLER_21_256
*780 FILLER_21_272
*781 FILLER_21_282
*782 FILLER_21_290
*783 FILLER_21_292
*784 FILLER_21_30
*785 FILLER_21_38
*786 FILLER_21_42
*787 FILLER_21_51
*788 FILLER_21_59
*789 FILLER_21_61
*790 FILLER_22_102
*791 FILLER_22_104
*792 FILLER_22_107
*793 FILLER_22_111
*794 FILLER_22_121
*795 FILLER_22_137
*796 FILLER_22_141
*797 FILLER_22_151
*798 FILLER_22_182
*799 FILLER_22_198
*800 FILLER_22_230
*801 FILLER_22_242
*802 FILLER_22_244
*803 FILLER_22_247
*804 FILLER_22_279
*805 FILLER_22_289
*806 FILLER_22_340
*807 FILLER_22_342
*808 FILLER_22_78
*809 FILLER_22_94
*810 FILLER_23_133
*811 FILLER_23_137
*812 FILLER_23_139
*813 FILLER_23_142
*814 FILLER_23_150
*815 FILLER_23_154
*816 FILLER_23_156
*817 FILLER_23_172
*818 FILLER_23_18
*819 FILLER_23_2
*820 FILLER_23_212
*821 FILLER_23_22
*822 FILLER_23_220
*823 FILLER_23_258
*824 FILLER_23_274
*825 FILLER_23_44
*826 FILLER_23_48
*827 FILLER_23_54
*828 FILLER_23_67
*829 FILLER_23_69
*830 FILLER_23_72
*831 FILLER_23_76
*832 FILLER_23_86
*833 FILLER_23_90
*834 FILLER_24_126
*835 FILLER_24_161
*836 FILLER_24_169
*837 FILLER_24_173
*838 FILLER_24_2
*839 FILLER_24_247
*840 FILLER_24_32
*841 FILLER_24_34
*842 FILLER_24_341
*843 FILLER_24_37
*844 FILLER_24_39
*845 FILLER_24_44
*846 FILLER_24_60
*847 FILLER_24_68
*848 FILLER_24_82
*849 FILLER_24_84
*850 FILLER_24_93
*851 FILLER_24_97
*852 FILLER_24_99
*853 FILLER_25_100
*854 FILLER_25_102
*855 FILLER_25_111
*856 FILLER_25_135
*857 FILLER_25_139
*858 FILLER_25_142
*859 FILLER_25_179
*860 FILLER_25_202
*861 FILLER_25_248
*862 FILLER_25_264
*863 FILLER_25_272
*864 FILLER_25_332
*865 FILLER_25_336
*866 FILLER_25_44
*867 FILLER_25_52
*868 FILLER_25_56
*869 FILLER_25_58
*870 FILLER_25_65
*871 FILLER_25_69
*872 FILLER_25_72
*873 FILLER_25_88
*874 FILLER_25_96
*875 FILLER_26_121
*876 FILLER_26_129
*877 FILLER_26_167
*878 FILLER_26_177
*879 FILLER_26_18
*880 FILLER_26_2
*881 FILLER_26_241
*882 FILLER_26_26
*883 FILLER_26_333
*884 FILLER_26_341
*885 FILLER_26_47
*886 FILLER_26_51
*887 FILLER_26_69
*888 FILLER_27_10
*889 FILLER_27_101
*890 FILLER_27_136
*891 FILLER_27_142
*892 FILLER_27_150
*893 FILLER_27_169
*894 FILLER_27_173
*895 FILLER_27_175
*896 FILLER_27_2
*897 FILLER_27_20
*898 FILLER_27_227
*899 FILLER_27_24
*900 FILLER_27_265
*901 FILLER_27_273
*902 FILLER_27_277
*903 FILLER_27_279
*904 FILLER_27_282
*905 FILLER_27_296
*906 FILLER_27_304
*907 FILLER_27_308
*908 FILLER_27_59
*909 FILLER_27_67
*910 FILLER_27_69
*911 FILLER_27_72
*912 FILLER_27_74
*913 FILLER_27_89
*914 FILLER_27_97
*915 FILLER_28_103
*916 FILLER_28_107
*917 FILLER_28_139
*918 FILLER_28_155
*919 FILLER_28_159
*920 FILLER_28_177
*921 FILLER_28_181
*922 FILLER_28_183
*923 FILLER_28_199
*924 FILLER_28_2
*925 FILLER_28_236
*926 FILLER_28_244
*927 FILLER_28_247
*928 FILLER_28_263
*929 FILLER_28_279
*930 FILLER_28_321
*931 FILLER_28_333
*932 FILLER_28_34
*933 FILLER_28_341
*934 FILLER_28_37
*935 FILLER_28_45
*936 FILLER_28_83
*937 FILLER_28_99
*938 FILLER_29_136
*939 FILLER_29_142
*940 FILLER_29_150
*941 FILLER_29_185
*942 FILLER_29_201
*943 FILLER_29_209
*944 FILLER_29_212
*945 FILLER_29_228
*946 FILLER_29_232
*947 FILLER_29_234
*948 FILLER_29_250
*949 FILLER_29_266
*950 FILLER_29_274
*951 FILLER_29_278
*952 FILLER_29_282
*953 FILLER_29_328
*954 FILLER_29_336
*955 FILLER_29_340
*956 FILLER_29_342
*957 FILLER_29_36
*958 FILLER_29_68
*959 FILLER_29_72
*960 FILLER_2_103
*961 FILLER_2_124
*962 FILLER_2_128
*963 FILLER_2_130
*964 FILLER_2_160
*965 FILLER_2_168
*966 FILLER_2_172
*967 FILLER_2_174
*968 FILLER_2_177
*969 FILLER_2_2
*970 FILLER_2_241
*971 FILLER_2_247
*972 FILLER_2_311
*973 FILLER_2_317
*974 FILLER_2_333
*975 FILLER_2_34
*976 FILLER_2_37
*977 FILLER_2_45
*978 FILLER_2_76
*979 FILLER_2_80
*980 FILLER_2_82
*981 FILLER_30_101
*982 FILLER_30_107
*983 FILLER_30_171
*984 FILLER_30_177
*985 FILLER_30_2
*986 FILLER_30_241
*987 FILLER_30_247
*988 FILLER_30_279
*989 FILLER_30_295
*990 FILLER_30_299
*991 FILLER_30_304
*992 FILLER_30_312
*993 FILLER_30_314
*994 FILLER_30_317
*995 FILLER_30_333
*996 FILLER_30_34
*997 FILLER_30_341
*998 FILLER_30_37
*999 FILLER_31_136
*1000 FILLER_31_142
*1001 FILLER_31_2
*1002 FILLER_31_206
*1003 FILLER_31_212
*1004 FILLER_31_276
*1005 FILLER_31_282
*1006 FILLER_31_298
*1007 FILLER_31_306
*1008 FILLER_31_341
*1009 FILLER_31_66
*1010 FILLER_31_72
*1011 FILLER_32_104
*1012 FILLER_32_138
*1013 FILLER_32_172
*1014 FILLER_32_2
*1015 FILLER_32_206
*1016 FILLER_32_240
*1017 FILLER_32_274
*1018 FILLER_32_308
*1019 FILLER_32_342
*1020 FILLER_32_36
*1021 FILLER_32_70
*1022 FILLER_3_118
*1023 FILLER_3_126
*1024 FILLER_3_138
*1025 FILLER_3_152
*1026 FILLER_3_18
*1027 FILLER_3_184
*1028 FILLER_3_2
*1029 FILLER_3_200
*1030 FILLER_3_208
*1031 FILLER_3_212
*1032 FILLER_3_276
*1033 FILLER_3_282
*1034 FILLER_3_298
*1035 FILLER_3_306
*1036 FILLER_3_310
*1037 FILLER_3_66
*1038 FILLER_3_72
*1039 FILLER_3_80
*1040 FILLER_3_85
*1041 FILLER_4_104
*1042 FILLER_4_122
*1043 FILLER_4_154
*1044 FILLER_4_170
*1045 FILLER_4_174
*1046 FILLER_4_177
*1047 FILLER_4_241
*1048 FILLER_4_247
*1049 FILLER_4_279
*1050 FILLER_4_295
*1051 FILLER_4_307
*1052 FILLER_4_317
*1053 FILLER_4_333
*1054 FILLER_4_341
*1055 FILLER_4_68
*1056 FILLER_4_84
*1057 FILLER_4_88
*1058 FILLER_5_113
*1059 FILLER_5_130
*1060 FILLER_5_138
*1061 FILLER_5_142
*1062 FILLER_5_18
*1063 FILLER_5_2
*1064 FILLER_5_206
*1065 FILLER_5_212
*1066 FILLER_5_22
*1067 FILLER_5_276
*1068 FILLER_5_282
*1069 FILLER_5_321
*1070 FILLER_5_337
*1071 FILLER_5_341
*1072 FILLER_5_53
*1073 FILLER_5_55
*1074 FILLER_5_69
*1075 FILLER_5_76
*1076 FILLER_5_80
*1077 FILLER_5_91
*1078 FILLER_5_93
*1079 FILLER_6_115
*1080 FILLER_6_117
*1081 FILLER_6_154
*1082 FILLER_6_170
*1083 FILLER_6_174
*1084 FILLER_6_181
*1085 FILLER_6_2
*1086 FILLER_6_247
*1087 FILLER_6_251
*1088 FILLER_6_282
*1089 FILLER_6_290
*1090 FILLER_6_294
*1091 FILLER_6_314
*1092 FILLER_6_331
*1093 FILLER_6_333
*1094 FILLER_6_342
*1095 FILLER_6_60
*1096 FILLER_6_62
*1097 FILLER_6_75
*1098 FILLER_7_102
*1099 FILLER_7_134
*1100 FILLER_7_138
*1101 FILLER_7_142
*1102 FILLER_7_158
*1103 FILLER_7_162
*1104 FILLER_7_164
*1105 FILLER_7_194
*1106 FILLER_7_2
*1107 FILLER_7_204
*1108 FILLER_7_208
*1109 FILLER_7_241
*1110 FILLER_7_271
*1111 FILLER_7_279
*1112 FILLER_7_286
*1113 FILLER_7_288
*1114 FILLER_7_312
*1115 FILLER_7_34
*1116 FILLER_7_38
*1117 FILLER_7_40
*1118 FILLER_7_63
*1119 FILLER_7_67
*1120 FILLER_7_69
*1121 FILLER_7_72
*1122 FILLER_7_88
*1123 FILLER_8_101
*1124 FILLER_8_107
*1125 FILLER_8_123
*1126 FILLER_8_133
*1127 FILLER_8_170
*1128 FILLER_8_174
*1129 FILLER_8_186
*1130 FILLER_8_194
*1131 FILLER_8_2
*1132 FILLER_8_227
*1133 FILLER_8_243
*1134 FILLER_8_263
*1135 FILLER_8_271
*1136 FILLER_8_275
*1137 FILLER_8_317
*1138 FILLER_8_325
*1139 FILLER_8_34
*1140 FILLER_8_342
*1141 FILLER_8_37
*1142 FILLER_8_53
*1143 FILLER_8_57
*1144 FILLER_8_68
*1145 FILLER_8_70
*1146 FILLER_8_76
*1147 FILLER_8_84
*1148 FILLER_8_88
*1149 FILLER_8_90
*1150 FILLER_9_117
*1151 FILLER_9_121
*1152 FILLER_9_139
*1153 FILLER_9_153
*1154 FILLER_9_189
*1155 FILLER_9_197
*1156 FILLER_9_212
*1157 FILLER_9_282
*1158 FILLER_9_310
*1159 FILLER_9_40
*1160 FILLER_9_44
*1161 FILLER_9_46
*1162 FILLER_9_56
*1163 FILLER_9_8
*1164 PHY_EDGE_ROW_0_Left_33
*1165 PHY_EDGE_ROW_0_Right_0
*1166 PHY_EDGE_ROW_10_Left_43
*1167 PHY_EDGE_ROW_10_Right_10
*1168 PHY_EDGE_ROW_11_Left_44
*1169 PHY_EDGE_ROW_11_Right_11
*1170 PHY_EDGE_ROW_12_Left_45
*1171 PHY_EDGE_ROW_12_Right_12
*1172 PHY_EDGE_ROW_13_Left_46
*1173 PHY_EDGE_ROW_13_Right_13
*1174 PHY_EDGE_ROW_14_Left_47
*1175 PHY_EDGE_ROW_14_Right_14
*1176 PHY_EDGE_ROW_15_Left_48
*1177 PHY_EDGE_ROW_15_Right_15
*1178 PHY_EDGE_ROW_16_Left_49
*1179 PHY_EDGE_ROW_16_Right_16
*1180 PHY_EDGE_ROW_17_Left_50
*1181 PHY_EDGE_ROW_17_Right_17
*1182 PHY_EDGE_ROW_18_Left_51
*1183 PHY_EDGE_ROW_18_Right_18
*1184 PHY_EDGE_ROW_19_Left_52
*1185 PHY_EDGE_ROW_19_Right_19
*1186 PHY_EDGE_ROW_1_Left_34
*1187 PHY_EDGE_ROW_1_Right_1
*1188 PHY_EDGE_ROW_20_Left_53
*1189 PHY_EDGE_ROW_20_Right_20
*1190 PHY_EDGE_ROW_21_Left_54
*1191 PHY_EDGE_ROW_21_Right_21
*1192 PHY_EDGE_ROW_22_Left_55
*1193 PHY_EDGE_ROW_22_Right_22
*1194 PHY_EDGE_ROW_23_Left_56
*1195 PHY_EDGE_ROW_23_Right_23
*1196 PHY_EDGE_ROW_24_Left_57
*1197 PHY_EDGE_ROW_24_Right_24
*1198 PHY_EDGE_ROW_25_Left_58
*1199 PHY_EDGE_ROW_25_Right_25
*1200 PHY_EDGE_ROW_26_Left_59
*1201 PHY_EDGE_ROW_26_Right_26
*1202 PHY_EDGE_ROW_27_Left_60
*1203 PHY_EDGE_ROW_27_Right_27
*1204 PHY_EDGE_ROW_28_Left_61
*1205 PHY_EDGE_ROW_28_Right_28
*1206 PHY_EDGE_ROW_29_Left_62
*1207 PHY_EDGE_ROW_29_Right_29
*1208 PHY_EDGE_ROW_2_Left_35
*1209 PHY_EDGE_ROW_2_Right_2
*1210 PHY_EDGE_ROW_30_Left_63
*1211 PHY_EDGE_ROW_30_Right_30
*1212 PHY_EDGE_ROW_31_Left_64
*1213 PHY_EDGE_ROW_31_Right_31
*1214 PHY_EDGE_ROW_32_Left_65
*1215 PHY_EDGE_ROW_32_Right_32
*1216 PHY_EDGE_ROW_3_Left_36
*1217 PHY_EDGE_ROW_3_Right_3
*1218 PHY_EDGE_ROW_4_Left_37
*1219 PHY_EDGE_ROW_4_Right_4
*1220 PHY_EDGE_ROW_5_Left_38
*1221 PHY_EDGE_ROW_5_Right_5
*1222 PHY_EDGE_ROW_6_Left_39
*1223 PHY_EDGE_ROW_6_Right_6
*1224 PHY_EDGE_ROW_7_Left_40
*1225 PHY_EDGE_ROW_7_Right_7
*1226 PHY_EDGE_ROW_8_Left_41
*1227 PHY_EDGE_ROW_8_Right_8
*1228 PHY_EDGE_ROW_9_Left_42
*1229 PHY_EDGE_ROW_9_Right_9
*1230 TAP_TAPCELL_ROW_0_66
*1231 TAP_TAPCELL_ROW_0_67
*1232 TAP_TAPCELL_ROW_0_68
*1233 TAP_TAPCELL_ROW_0_69
*1234 TAP_TAPCELL_ROW_0_70
*1235 TAP_TAPCELL_ROW_0_71
*1236 TAP_TAPCELL_ROW_0_72
*1237 TAP_TAPCELL_ROW_0_73
*1238 TAP_TAPCELL_ROW_0_74
*1239 TAP_TAPCELL_ROW_0_75
*1240 TAP_TAPCELL_ROW_10_116
*1241 TAP_TAPCELL_ROW_10_117
*1242 TAP_TAPCELL_ROW_10_118
*1243 TAP_TAPCELL_ROW_10_119
*1244 TAP_TAPCELL_ROW_10_120
*1245 TAP_TAPCELL_ROW_11_121
*1246 TAP_TAPCELL_ROW_11_122
*1247 TAP_TAPCELL_ROW_11_123
*1248 TAP_TAPCELL_ROW_11_124
*1249 TAP_TAPCELL_ROW_12_125
*1250 TAP_TAPCELL_ROW_12_126
*1251 TAP_TAPCELL_ROW_12_127
*1252 TAP_TAPCELL_ROW_12_128
*1253 TAP_TAPCELL_ROW_12_129
*1254 TAP_TAPCELL_ROW_13_130
*1255 TAP_TAPCELL_ROW_13_131
*1256 TAP_TAPCELL_ROW_13_132
*1257 TAP_TAPCELL_ROW_13_133
*1258 TAP_TAPCELL_ROW_14_134
*1259 TAP_TAPCELL_ROW_14_135
*1260 TAP_TAPCELL_ROW_14_136
*1261 TAP_TAPCELL_ROW_14_137
*1262 TAP_TAPCELL_ROW_14_138
*1263 TAP_TAPCELL_ROW_15_139
*1264 TAP_TAPCELL_ROW_15_140
*1265 TAP_TAPCELL_ROW_15_141
*1266 TAP_TAPCELL_ROW_15_142
*1267 TAP_TAPCELL_ROW_16_143
*1268 TAP_TAPCELL_ROW_16_144
*1269 TAP_TAPCELL_ROW_16_145
*1270 TAP_TAPCELL_ROW_16_146
*1271 TAP_TAPCELL_ROW_16_147
*1272 TAP_TAPCELL_ROW_17_148
*1273 TAP_TAPCELL_ROW_17_149
*1274 TAP_TAPCELL_ROW_17_150
*1275 TAP_TAPCELL_ROW_17_151
*1276 TAP_TAPCELL_ROW_18_152
*1277 TAP_TAPCELL_ROW_18_153
*1278 TAP_TAPCELL_ROW_18_154
*1279 TAP_TAPCELL_ROW_18_155
*1280 TAP_TAPCELL_ROW_18_156
*1281 TAP_TAPCELL_ROW_19_157
*1282 TAP_TAPCELL_ROW_19_158
*1283 TAP_TAPCELL_ROW_19_159
*1284 TAP_TAPCELL_ROW_19_160
*1285 TAP_TAPCELL_ROW_1_76
*1286 TAP_TAPCELL_ROW_1_77
*1287 TAP_TAPCELL_ROW_1_78
*1288 TAP_TAPCELL_ROW_1_79
*1289 TAP_TAPCELL_ROW_20_161
*1290 TAP_TAPCELL_ROW_20_162
*1291 TAP_TAPCELL_ROW_20_163
*1292 TAP_TAPCELL_ROW_20_164
*1293 TAP_TAPCELL_ROW_20_165
*1294 TAP_TAPCELL_ROW_21_166
*1295 TAP_TAPCELL_ROW_21_167
*1296 TAP_TAPCELL_ROW_21_168
*1297 TAP_TAPCELL_ROW_21_169
*1298 TAP_TAPCELL_ROW_22_170
*1299 TAP_TAPCELL_ROW_22_171
*1300 TAP_TAPCELL_ROW_22_172
*1301 TAP_TAPCELL_ROW_22_173
*1302 TAP_TAPCELL_ROW_22_174
*1303 TAP_TAPCELL_ROW_23_175
*1304 TAP_TAPCELL_ROW_23_176
*1305 TAP_TAPCELL_ROW_23_177
*1306 TAP_TAPCELL_ROW_23_178
*1307 TAP_TAPCELL_ROW_24_179
*1308 TAP_TAPCELL_ROW_24_180
*1309 TAP_TAPCELL_ROW_24_181
*1310 TAP_TAPCELL_ROW_24_182
*1311 TAP_TAPCELL_ROW_24_183
*1312 TAP_TAPCELL_ROW_25_184
*1313 TAP_TAPCELL_ROW_25_185
*1314 TAP_TAPCELL_ROW_25_186
*1315 TAP_TAPCELL_ROW_25_187
*1316 TAP_TAPCELL_ROW_26_188
*1317 TAP_TAPCELL_ROW_26_189
*1318 TAP_TAPCELL_ROW_26_190
*1319 TAP_TAPCELL_ROW_26_191
*1320 TAP_TAPCELL_ROW_26_192
*1321 TAP_TAPCELL_ROW_27_193
*1322 TAP_TAPCELL_ROW_27_194
*1323 TAP_TAPCELL_ROW_27_195
*1324 TAP_TAPCELL_ROW_27_196
*1325 TAP_TAPCELL_ROW_28_197
*1326 TAP_TAPCELL_ROW_28_198
*1327 TAP_TAPCELL_ROW_28_199
*1328 TAP_TAPCELL_ROW_28_200
*1329 TAP_TAPCELL_ROW_28_201
*1330 TAP_TAPCELL_ROW_29_202
*1331 TAP_TAPCELL_ROW_29_203
*1332 TAP_TAPCELL_ROW_29_204
*1333 TAP_TAPCELL_ROW_29_205
*1334 TAP_TAPCELL_ROW_2_80
*1335 TAP_TAPCELL_ROW_2_81
*1336 TAP_TAPCELL_ROW_2_82
*1337 TAP_TAPCELL_ROW_2_83
*1338 TAP_TAPCELL_ROW_2_84
*1339 TAP_TAPCELL_ROW_30_206
*1340 TAP_TAPCELL_ROW_30_207
*1341 TAP_TAPCELL_ROW_30_208
*1342 TAP_TAPCELL_ROW_30_209
*1343 TAP_TAPCELL_ROW_30_210
*1344 TAP_TAPCELL_ROW_31_211
*1345 TAP_TAPCELL_ROW_31_212
*1346 TAP_TAPCELL_ROW_31_213
*1347 TAP_TAPCELL_ROW_31_214
*1348 TAP_TAPCELL_ROW_32_215
*1349 TAP_TAPCELL_ROW_32_216
*1350 TAP_TAPCELL_ROW_32_217
*1351 TAP_TAPCELL_ROW_32_218
*1352 TAP_TAPCELL_ROW_32_219
*1353 TAP_TAPCELL_ROW_32_220
*1354 TAP_TAPCELL_ROW_32_221
*1355 TAP_TAPCELL_ROW_32_222
*1356 TAP_TAPCELL_ROW_32_223
*1357 TAP_TAPCELL_ROW_32_224
*1358 TAP_TAPCELL_ROW_3_85
*1359 TAP_TAPCELL_ROW_3_86
*1360 TAP_TAPCELL_ROW_3_87
*1361 TAP_TAPCELL_ROW_3_88
*1362 TAP_TAPCELL_ROW_4_89
*1363 TAP_TAPCELL_ROW_4_90
*1364 TAP_TAPCELL_ROW_4_91
*1365 TAP_TAPCELL_ROW_4_92
*1366 TAP_TAPCELL_ROW_4_93
*1367 TAP_TAPCELL_ROW_5_94
*1368 TAP_TAPCELL_ROW_5_95
*1369 TAP_TAPCELL_ROW_5_96
*1370 TAP_TAPCELL_ROW_5_97
*1371 TAP_TAPCELL_ROW_6_100
*1372 TAP_TAPCELL_ROW_6_101
*1373 TAP_TAPCELL_ROW_6_102
*1374 TAP_TAPCELL_ROW_6_98
*1375 TAP_TAPCELL_ROW_6_99
*1376 TAP_TAPCELL_ROW_7_103
*1377 TAP_TAPCELL_ROW_7_104
*1378 TAP_TAPCELL_ROW_7_105
*1379 TAP_TAPCELL_ROW_7_106
*1380 TAP_TAPCELL_ROW_8_107
*1381 TAP_TAPCELL_ROW_8_108
*1382 TAP_TAPCELL_ROW_8_109
*1383 TAP_TAPCELL_ROW_8_110
*1384 TAP_TAPCELL_ROW_8_111
*1385 TAP_TAPCELL_ROW_9_112
*1386 TAP_TAPCELL_ROW_9_113
*1387 TAP_TAPCELL_ROW_9_114
*1388 TAP_TAPCELL_ROW_9_115
*1389 _323_
*1390 _324_
*1391 _325_
*1392 _326_
*1393 _327_
*1394 _328_
*1395 _329_
*1396 _330_
*1397 _331_
*1398 _332_
*1399 _333_
*1400 _334_
*1401 _335_
*1402 _336_
*1403 _337_
*1404 _338_
*1405 _339_
*1406 _340_
*1407 _341_
*1408 _342_
*1409 _343_
*1410 _344_
*1411 _345_
*1412 _346_
*1413 _347_
*1414 _348_
*1415 _349_
*1416 _350_
*1417 _351_
*1418 _352_
*1419 _353_
*1420 _354_
*1421 _355_
*1422 _356_
*1423 _357_
*1424 _358_
*1425 _359_
*1426 _360_
*1427 _361_
*1428 _362_
*1429 _363_
*1430 _364_
*1431 _365_
*1432 _366_
*1433 _367_
*1434 _368_
*1435 _369_
*1436 _370_
*1437 _371_
*1438 _372_
*1439 _373_
*1440 _374_
*1441 _375_
*1442 _376_
*1443 _377_
*1444 _378_
*1445 _379_
*1446 _380_
*1447 _381_
*1448 _382_
*1449 _383_
*1450 _384_
*1451 _385_
*1452 _386_
*1453 _387_
*1454 _388_
*1455 _389_
*1456 _390_
*1457 _391_
*1458 _392_
*1459 _393_
*1460 _394_
*1461 _395_
*1462 _396_
*1463 _397_
*1464 _398_
*1465 _399_
*1466 _400_
*1467 _401_
*1468 _402_
*1469 _403_
*1470 _404_
*1471 _405_
*1472 _406_
*1473 _407_
*1474 _408_
*1475 _409_
*1476 _410_
*1477 _411_
*1478 _412_
*1479 _413_
*1480 _414_
*1481 _415_
*1482 _416_
*1483 _417_
*1484 _418_
*1485 _419_
*1486 _420_
*1487 _421_
*1488 _422_
*1489 _423_
*1490 _424_
*1491 _425_
*1492 _426_
*1493 _427_
*1494 _428_
*1495 _429_
*1496 _430_
*1497 _431_
*1498 _432_
*1499 _433_
*1500 _434_
*1501 _435_
*1502 _436_
*1503 _437_
*1504 _438_
*1505 _439_
*1506 _440_
*1507 _441_
*1508 _442_
*1509 _443_
*1510 _444_
*1511 _445_
*1512 _446_
*1513 _447_
*1514 _448_
*1515 _449_
*1516 _450_
*1517 _451_
*1518 _452_
*1519 _453_
*1520 _454_
*1521 _455_
*1522 _456_
*1523 _457_
*1524 _458_
*1525 _459_
*1526 _460_
*1527 _461_
*1528 _462_
*1529 _463_
*1530 _464_
*1531 _465_
*1532 _466_
*1533 _467_
*1534 _468_
*1535 _469_
*1536 _470_
*1537 _471_
*1538 _472_
*1539 _473_
*1540 _474_
*1541 _475_
*1542 _476_
*1543 _477_
*1544 _478_
*1545 _479_
*1546 _480_
*1547 _481_
*1548 _482_
*1549 _483_
*1550 _484_
*1551 _485_
*1552 _486_
*1553 _487_
*1554 _488_
*1555 _489_
*1556 _490_
*1557 _491_
*1558 _492_
*1559 _493_
*1560 _494_
*1561 _495_
*1562 _496_
*1563 _497_
*1564 _498_
*1565 _499_
*1566 _500_
*1567 _501_
*1568 _502_
*1569 _503_
*1570 _504_
*1571 _505_
*1572 _506_
*1573 _507_
*1574 _508_
*1575 _509_
*1576 _510_
*1577 _511_
*1578 _512_
*1579 _513_
*1580 _514_
*1581 _515_
*1582 _516_
*1583 _517_
*1584 _518_
*1585 _519_
*1586 _520_
*1587 _521_
*1588 _522_
*1589 _523_
*1590 _524_
*1591 _525_
*1592 _526_
*1593 _527_
*1594 _528_
*1595 _529_
*1596 _530_
*1597 _531_
*1598 _532_
*1599 _533_
*1600 _534_
*1601 _535_
*1602 _536_
*1603 _537_
*1604 _538_
*1605 _539_
*1606 _540_
*1607 _541_
*1608 _542_
*1609 _543_
*1610 _544_
*1611 _545_
*1612 _546_
*1613 _547_
*1614 _548_
*1615 _549_
*1616 _550_
*1617 _551_
*1618 _552_
*1619 _553_
*1620 _554_
*1621 _555_
*1622 _556_
*1623 _557_
*1624 _558_
*1625 _559_
*1626 _560_
*1627 _561_
*1628 _562_
*1629 _563_
*1630 _564_
*1631 _565_
*1632 _566_
*1633 _567_
*1634 _568_
*1635 _569_
*1636 _570_
*1637 _571_
*1638 _572_
*1639 _573_
*1640 _574_