*SPEF "ieee 1481-1999"
*DESIGN "tiny_tonegen"
*DATE "21:25:48 Tuesday December 02, 2025"
*VENDOR "The OpenROAD Project"
*PROGRAM "OpenROAD"
*VERSION "v2.0-16235-gedf00dff9"
*DESIGN_FLOW "NAME_SCOPE LOCAL" "PIN_CAP NONE"
*DIVIDER /
*DELIMITER :
*BUS_DELIMITER []
*T_UNIT 1 NS
*C_UNIT 1 PF
*R_UNIT 1 OHM
*L_UNIT 1 HENRY

*NAME_MAP
*3 address_in[0]
*4 address_in[1]
*5 address_in[2]
*6 clk
*7 data_in[0]
*8 data_in[1]
*9 data_in[2]
*10 data_in[3]
*11 data_in[4]
*12 ena
*13 rst_n
*14 signal_bit_out
*15 write_strobe_in
*16 _000_
*17 _001_
*18 _002_
*19 _003_
*20 _004_
*21 _008_
*22 _009_
*23 _010_
*24 _011_
*25 _012_
*26 _013_
*27 _014_
*28 _015_
*29 _016_
*30 _017_
*31 _018_
*32 _019_
*33 _020_
*34 _021_
*35 _022_
*36 _023_
*37 _024_
*38 _025_
*39 _026_
*40 _027_
*41 _028_
*42 _029_
*43 _030_
*44 _031_
*45 _032_
*46 _033_
*47 _034_
*48 _035_
*49 _036_
*50 _037_
*51 _038_
*52 _039_
*53 _040_
*54 _041_
*55 _042_
*56 _043_
*57 _044_
*58 _045_
*59 _046_
*60 _047_
*61 _048_
*62 _049_
*63 _050_
*64 _051_
*65 _052_
*66 _053_
*67 _054_
*68 _055_
*69 _056_
*70 _057_
*71 _058_
*72 _059_
*73 _060_
*74 _061_
*75 _062_
*76 _063_
*77 _064_
*78 _065_
*79 _066_
*80 _067_
*81 _068_
*82 _069_
*83 _070_
*84 _071_
*85 _072_
*86 _073_
*87 _074_
*88 _075_
*89 _076_
*90 _077_
*91 _078_
*92 _079_
*93 _080_
*94 _081_
*95 _082_
*96 _083_
*97 _084_
*98 _085_
*99 _086_
*100 _087_
*101 _088_
*102 _089_
*103 _090_
*104 _091_
*105 _092_
*106 _093_
*107 _094_
*108 _095_
*109 _096_
*110 _097_
*111 _098_
*112 _099_
*113 _100_
*114 _101_
*115 _102_
*116 _103_
*117 _104_
*118 _105_
*119 _106_
*120 _107_
*121 _108_
*122 _109_
*123 _110_
*124 clk_scaled
*125 clk_scaler\.counter\[0\]
*126 clk_scaler\.counter\[1\]
*127 clk_scaler\.counter\[2\]
*128 clk_scaler\.counter\[3\]
*129 clk_scaler\.counter\[4\]
*130 clk_scaler\.counter\[5\]
*131 clk_scaler\.counter\[6\]
*132 clk_scaler\.counter\[7\]
*133 clknet_0_clk
*134 clknet_1_0__leaf_clk
*135 clknet_1_1__leaf_clk
*136 net1
*137 net10
*138 net11
*139 net12
*140 net13
*141 net14
*142 net15
*143 net16
*144 net17
*145 net18
*146 net19
*147 net2
*148 net20
*149 net21
*150 net22
*151 net23
*152 net24
*153 net25
*154 net3
*155 net4
*156 net5
*157 net6
*158 net7
*159 net8
*160 net9
*161 signal_gen\.enableN
*162 signal_gen\.mix\.mixout\[3\]
*163 signal_gen\.mix\.mixout\[4\]
*164 signal_gen\.mix\.mixout\[5\]
*165 signal_gen\.mix\.mixout\[6\]
*166 signal_gen\.mix\.n_val\[1\]
*167 signal_gen\.mix\.n_val\[2\]
*168 signal_gen\.mix\.n_val\[3\]
*169 signal_gen\.mix\.n_val\[4\]
*170 signal_gen\.mix\.noise
*171 signal_gen\.mix\.started
*172 signal_gen\.mix\.sum\[1\]
*173 signal_gen\.mix\.sum\[2\]
*174 signal_gen\.mix\.sum\[3\]
*175 signal_gen\.mix\.sum\[4\]
*176 signal_gen\.noise_gen\.feedback
*177 signal_gen\.noise_gen\.noise_reg\[0\]
*178 signal_gen\.noise_gen\.noise_reg\[10\]
*179 signal_gen\.noise_gen\.noise_reg\[11\]
*180 signal_gen\.noise_gen\.noise_reg\[12\]
*181 signal_gen\.noise_gen\.noise_reg\[13\]
*182 signal_gen\.noise_gen\.noise_reg\[2\]
*183 signal_gen\.noise_gen\.noise_reg\[3\]
*184 signal_gen\.noise_gen\.noise_reg\[4\]
*185 signal_gen\.noise_gen\.noise_reg\[5\]
*186 signal_gen\.noise_gen\.noise_reg\[6\]
*187 signal_gen\.noise_gen\.noise_reg\[7\]
*188 signal_gen\.noise_gen\.noise_reg\[8\]
*189 signal_gen\.noise_gen\.noise_reg\[9\]
*190 signal_gen\.pwmGen\.clk_cnt\[0\]
*191 signal_gen\.pwmGen\.clk_cnt\[1\]
*192 signal_gen\.pwmGen\.clk_cnt\[2\]
*193 signal_gen\.pwmGen\.clk_cnt\[3\]
*194 signal_gen\.pwmGen\.clk_cnt\[4\]
*195 signal_gen\.pwmGen\.clk_cnt\[5\]
*196 signal_gen\.pwmGen\.clk_cnt\[6\]
*197 signal_gen\.pwmGen\.clk_cnt\[7\]
*198 signal_gen\.volN\[0\]
*199 signal_gen\.volN\[1\]
*200 signal_gen\.volN\[2\]
*201 signal_gen\.volN\[3\]
*202 FILLER_0_104
*203 FILLER_0_138
*204 FILLER_0_172
*205 FILLER_0_2
*206 FILLER_0_206
*207 FILLER_0_240
*208 FILLER_0_256
*209 FILLER_0_264
*210 FILLER_0_268
*211 FILLER_0_270
*212 FILLER_0_36
*213 FILLER_0_70
*214 FILLER_10_100
*215 FILLER_10_104
*216 FILLER_10_148
*217 FILLER_10_164
*218 FILLER_10_172
*219 FILLER_10_174
*220 FILLER_10_2
*221 FILLER_10_206
*222 FILLER_10_243
*223 FILLER_10_247
*224 FILLER_10_263
*225 FILLER_10_69
*226 FILLER_11_101
*227 FILLER_11_134
*228 FILLER_11_138
*229 FILLER_11_142
*230 FILLER_11_158
*231 FILLER_11_16
*232 FILLER_11_162
*233 FILLER_11_20
*234 FILLER_11_223
*235 FILLER_11_245
*236 FILLER_11_261
*237 FILLER_11_269
*238 FILLER_11_58
*239 FILLER_11_66
*240 FILLER_11_72
*241 FILLER_11_8
*242 FILLER_11_80
*243 FILLER_11_82
*244 FILLER_11_93
*245 FILLER_12_102
*246 FILLER_12_104
*247 FILLER_12_107
*248 FILLER_12_139
*249 FILLER_12_155
*250 FILLER_12_16
*251 FILLER_12_163
*252 FILLER_12_167
*253 FILLER_12_18
*254 FILLER_12_214
*255 FILLER_12_241
*256 FILLER_12_247
*257 FILLER_12_263
*258 FILLER_12_34
*259 FILLER_12_41
*260 FILLER_12_49
*261 FILLER_12_53
*262 FILLER_12_8
*263 FILLER_13_119
*264 FILLER_13_123
*265 FILLER_13_142
*266 FILLER_13_158
*267 FILLER_13_166
*268 FILLER_13_170
*269 FILLER_13_172
*270 FILLER_13_2
*271 FILLER_13_209
*272 FILLER_13_212
*273 FILLER_13_219
*274 FILLER_13_254
*275 FILLER_13_270
*276 FILLER_13_41
*277 FILLER_13_57
*278 FILLER_13_6
*279 FILLER_13_65
*280 FILLER_13_69
*281 FILLER_13_87
*282 FILLER_14_104
*283 FILLER_14_107
*284 FILLER_14_123
*285 FILLER_14_125
*286 FILLER_14_162
*287 FILLER_14_170
*288 FILLER_14_174
*289 FILLER_14_18
*290 FILLER_14_2
*291 FILLER_14_234
*292 FILLER_14_242
*293 FILLER_14_244
*294 FILLER_14_247
*295 FILLER_14_263
*296 FILLER_14_37
*297 FILLER_14_96
*298 FILLER_15_103
*299 FILLER_15_176
*300 FILLER_15_184
*301 FILLER_15_191
*302 FILLER_15_199
*303 FILLER_15_2
*304 FILLER_15_203
*305 FILLER_15_212
*306 FILLER_15_247
*307 FILLER_15_263
*308 FILLER_15_58
*309 FILLER_15_6
*310 FILLER_15_8
*311 FILLER_16_107
*312 FILLER_16_123
*313 FILLER_16_160
*314 FILLER_16_168
*315 FILLER_16_172
*316 FILLER_16_174
*317 FILLER_16_177
*318 FILLER_16_193
*319 FILLER_16_2
*320 FILLER_16_238
*321 FILLER_16_242
*322 FILLER_16_244
*323 FILLER_16_247
*324 FILLER_16_263
*325 FILLER_16_34
*326 FILLER_16_37
*327 FILLER_16_53
*328 FILLER_16_57
*329 FILLER_16_59
*330 FILLER_16_97
*331 FILLER_17_108
*332 FILLER_17_116
*333 FILLER_17_120
*334 FILLER_17_122
*335 FILLER_17_138
*336 FILLER_17_157
*337 FILLER_17_18
*338 FILLER_17_189
*339 FILLER_17_196
*340 FILLER_17_2
*341 FILLER_17_246
*342 FILLER_17_26
*343 FILLER_17_262
*344 FILLER_17_270
*345 FILLER_17_28
*346 FILLER_17_63
*347 FILLER_17_67
*348 FILLER_17_69
*349 FILLER_17_92
*350 FILLER_18_156
*351 FILLER_18_172
*352 FILLER_18_174
*353 FILLER_18_177
*354 FILLER_18_181
*355 FILLER_18_2
*356 FILLER_18_260
*357 FILLER_18_268
*358 FILLER_18_270
*359 FILLER_18_34
*360 FILLER_18_37
*361 FILLER_18_45
*362 FILLER_18_49
*363 FILLER_18_87
*364 FILLER_18_89
*365 FILLER_19_117
*366 FILLER_19_133
*367 FILLER_19_137
*368 FILLER_19_139
*369 FILLER_19_142
*370 FILLER_19_146
*371 FILLER_19_2
*372 FILLER_19_208
*373 FILLER_19_212
*374 FILLER_19_214
*375 FILLER_19_265
*376 FILLER_19_269
*377 FILLER_19_34
*378 FILLER_19_42
*379 FILLER_19_46
*380 FILLER_19_72
*381 FILLER_19_80
*382 FILLER_1_136
*383 FILLER_1_142
*384 FILLER_1_2
*385 FILLER_1_206
*386 FILLER_1_212
*387 FILLER_1_244
*388 FILLER_1_260
*389 FILLER_1_268
*390 FILLER_1_270
*391 FILLER_1_66
*392 FILLER_1_72
*393 FILLER_20_103
*394 FILLER_20_130
*395 FILLER_20_138
*396 FILLER_20_140
*397 FILLER_20_2
*398 FILLER_20_266
*399 FILLER_20_270
*400 FILLER_20_34
*401 FILLER_20_37
*402 FILLER_20_53
*403 FILLER_20_61
*404 FILLER_20_65
*405 FILLER_21_128
*406 FILLER_21_136
*407 FILLER_21_142
*408 FILLER_21_144
*409 FILLER_21_149
*410 FILLER_21_157
*411 FILLER_21_2
*412 FILLER_21_209
*413 FILLER_21_218
*414 FILLER_21_261
*415 FILLER_21_269
*416 FILLER_21_66
*417 FILLER_21_72
*418 FILLER_21_80
*419 FILLER_21_84
*420 FILLER_22_104
*421 FILLER_22_108
*422 FILLER_22_121
*423 FILLER_22_129
*424 FILLER_22_133
*425 FILLER_22_135
*426 FILLER_22_138
*427 FILLER_22_146
*428 FILLER_22_158
*429 FILLER_22_167
*430 FILLER_22_169
*431 FILLER_22_172
*432 FILLER_22_180
*433 FILLER_22_2
*434 FILLER_22_202
*435 FILLER_22_222
*436 FILLER_22_258
*437 FILLER_22_266
*438 FILLER_22_270
*439 FILLER_22_36
*440 FILLER_22_70
*441 FILLER_2_101
*442 FILLER_2_107
*443 FILLER_2_171
*444 FILLER_2_177
*445 FILLER_2_2
*446 FILLER_2_241
*447 FILLER_2_247
*448 FILLER_2_263
*449 FILLER_2_34
*450 FILLER_2_37
*451 FILLER_3_136
*452 FILLER_3_142
*453 FILLER_3_2
*454 FILLER_3_206
*455 FILLER_3_212
*456 FILLER_3_228
*457 FILLER_3_232
*458 FILLER_3_265
*459 FILLER_3_269
*460 FILLER_3_66
*461 FILLER_3_72
*462 FILLER_4_10
*463 FILLER_4_103
*464 FILLER_4_107
*465 FILLER_4_14
*466 FILLER_4_16
*467 FILLER_4_171
*468 FILLER_4_177
*469 FILLER_4_2
*470 FILLER_4_241
*471 FILLER_4_247
*472 FILLER_4_263
*473 FILLER_4_32
*474 FILLER_4_34
*475 FILLER_4_37
*476 FILLER_4_43
*477 FILLER_4_75
*478 FILLER_4_91
*479 FILLER_4_99
*480 FILLER_5_10
*481 FILLER_5_105
*482 FILLER_5_107
*483 FILLER_5_137
*484 FILLER_5_139
*485 FILLER_5_142
*486 FILLER_5_151
*487 FILLER_5_153
*488 FILLER_5_183
*489 FILLER_5_199
*490 FILLER_5_2
*491 FILLER_5_207
*492 FILLER_5_209
*493 FILLER_5_212
*494 FILLER_5_241
*495 FILLER_5_257
*496 FILLER_5_265
*497 FILLER_5_269
*498 FILLER_5_50
*499 FILLER_5_66
*500 FILLER_6_104
*501 FILLER_6_107
*502 FILLER_6_137
*503 FILLER_6_16
*504 FILLER_6_177
*505 FILLER_6_193
*506 FILLER_6_201
*507 FILLER_6_205
*508 FILLER_6_207
*509 FILLER_6_252
*510 FILLER_6_268
*511 FILLER_6_270
*512 FILLER_6_32
*513 FILLER_6_34
*514 FILLER_6_8
*515 FILLER_7_101
*516 FILLER_7_103
*517 FILLER_7_120
*518 FILLER_7_142
*519 FILLER_7_187
*520 FILLER_7_191
*521 FILLER_7_196
*522 FILLER_7_201
*523 FILLER_7_203
*524 FILLER_7_212
*525 FILLER_7_255
*526 FILLER_7_52
*527 FILLER_7_56
*528 FILLER_7_72
*529 FILLER_8_103
*530 FILLER_8_111
*531 FILLER_8_123
*532 FILLER_8_125
*533 FILLER_8_14
*534 FILLER_8_140
*535 FILLER_8_144
*536 FILLER_8_153
*537 FILLER_8_16
*538 FILLER_8_169
*539 FILLER_8_173
*540 FILLER_8_177
*541 FILLER_8_193
*542 FILLER_8_263
*543 FILLER_8_32
*544 FILLER_8_34
*545 FILLER_8_37
*546 FILLER_8_39
*547 FILLER_8_44
*548 FILLER_8_95
*549 FILLER_9_150
*550 FILLER_9_180
*551 FILLER_9_188
*552 FILLER_9_193
*553 FILLER_9_209
*554 FILLER_9_221
*555 FILLER_9_258
*556 FILLER_9_266
*557 FILLER_9_270
*558 FILLER_9_54
*559 FILLER_9_72
*560 FILLER_9_76
*561 FILLER_9_8
*562 FILLER_9_92
*563 FILLER_9_96
*564 FILLER_9_98
*565 PHY_EDGE_ROW_0_Left_23
*566 PHY_EDGE_ROW_0_Right_0
*567 PHY_EDGE_ROW_10_Left_33
*568 PHY_EDGE_ROW_10_Right_10
*569 PHY_EDGE_ROW_11_Left_34
*570 PHY_EDGE_ROW_11_Right_11
*571 PHY_EDGE_ROW_12_Left_35
*572 PHY_EDGE_ROW_12_Right_12
*573 PHY_EDGE_ROW_13_Left_36
*574 PHY_EDGE_ROW_13_Right_13
*575 PHY_EDGE_ROW_14_Left_37
*576 PHY_EDGE_ROW_14_Right_14
*577 PHY_EDGE_ROW_15_Left_38
*578 PHY_EDGE_ROW_15_Right_15
*579 PHY_EDGE_ROW_16_Left_39
*580 PHY_EDGE_ROW_16_Right_16
*581 PHY_EDGE_ROW_17_Left_40
*582 PHY_EDGE_ROW_17_Right_17
*583 PHY_EDGE_ROW_18_Left_41
*584 PHY_EDGE_ROW_18_Right_18
*585 PHY_EDGE_ROW_19_Left_42
*586 PHY_EDGE_ROW_19_Right_19
*587 PHY_EDGE_ROW_1_Left_24
*588 PHY_EDGE_ROW_1_Right_1
*589 PHY_EDGE_ROW_20_Left_43
*590 PHY_EDGE_ROW_20_Right_20
*591 PHY_EDGE_ROW_21_Left_44
*592 PHY_EDGE_ROW_21_Right_21
*593 PHY_EDGE_ROW_22_Left_45
*594 PHY_EDGE_ROW_22_Right_22
*595 PHY_EDGE_ROW_2_Left_25
*596 PHY_EDGE_ROW_2_Right_2
*597 PHY_EDGE_ROW_3_Left_26
*598 PHY_EDGE_ROW_3_Right_3
*599 PHY_EDGE_ROW_4_Left_27
*600 PHY_EDGE_ROW_4_Right_4
*601 PHY_EDGE_ROW_5_Left_28
*602 PHY_EDGE_ROW_5_Right_5
*603 PHY_EDGE_ROW_6_Left_29
*604 PHY_EDGE_ROW_6_Right_6
*605 PHY_EDGE_ROW_7_Left_30
*606 PHY_EDGE_ROW_7_Right_7
*607 PHY_EDGE_ROW_8_Left_31
*608 PHY_EDGE_ROW_8_Right_8
*609 PHY_EDGE_ROW_9_Left_32
*610 PHY_EDGE_ROW_9_Right_9
*611 TAP_TAPCELL_ROW_0_46
*612 TAP_TAPCELL_ROW_0_47
*613 TAP_TAPCELL_ROW_0_48
*614 TAP_TAPCELL_ROW_0_49
*615 TAP_TAPCELL_ROW_0_50
*616 TAP_TAPCELL_ROW_0_51
*617 TAP_TAPCELL_ROW_0_52
*618 TAP_TAPCELL_ROW_10_84
*619 TAP_TAPCELL_ROW_10_85
*620 TAP_TAPCELL_ROW_10_86
*621 TAP_TAPCELL_ROW_10_87
*622 TAP_TAPCELL_ROW_11_88
*623 TAP_TAPCELL_ROW_11_89
*624 TAP_TAPCELL_ROW_11_90
*625 TAP_TAPCELL_ROW_12_91
*626 TAP_TAPCELL_ROW_12_92
*627 TAP_TAPCELL_ROW_12_93
*628 TAP_TAPCELL_ROW_12_94
*629 TAP_TAPCELL_ROW_13_95
*630 TAP_TAPCELL_ROW_13_96
*631 TAP_TAPCELL_ROW_13_97
*632 TAP_TAPCELL_ROW_14_100
*633 TAP_TAPCELL_ROW_14_101
*634 TAP_TAPCELL_ROW_14_98
*635 TAP_TAPCELL_ROW_14_99
*636 TAP_TAPCELL_ROW_15_102
*637 TAP_TAPCELL_ROW_15_103
*638 TAP_TAPCELL_ROW_15_104
*639 TAP_TAPCELL_ROW_16_105
*640 TAP_TAPCELL_ROW_16_106
*641 TAP_TAPCELL_ROW_16_107
*642 TAP_TAPCELL_ROW_16_108
*643 TAP_TAPCELL_ROW_17_109
*644 TAP_TAPCELL_ROW_17_110
*645 TAP_TAPCELL_ROW_17_111
*646 TAP_TAPCELL_ROW_18_112
*647 TAP_TAPCELL_ROW_18_113
*648 TAP_TAPCELL_ROW_18_114
*649 TAP_TAPCELL_ROW_18_115
*650 TAP_TAPCELL_ROW_19_116
*651 TAP_TAPCELL_ROW_19_117
*652 TAP_TAPCELL_ROW_19_118
*653 TAP_TAPCELL_ROW_1_53
*654 TAP_TAPCELL_ROW_1_54
*655 TAP_TAPCELL_ROW_1_55
*656 TAP_TAPCELL_ROW_20_119
*657 TAP_TAPCELL_ROW_20_120
*658 TAP_TAPCELL_ROW_20_121
*659 TAP_TAPCELL_ROW_20_122
*660 TAP_TAPCELL_ROW_21_123
*661 TAP_TAPCELL_ROW_21_124
*662 TAP_TAPCELL_ROW_21_125
*663 TAP_TAPCELL_ROW_22_126
*664 TAP_TAPCELL_ROW_22_127
*665 TAP_TAPCELL_ROW_22_128
*666 TAP_TAPCELL_ROW_22_129
*667 TAP_TAPCELL_ROW_22_130
*668 TAP_TAPCELL_ROW_22_131
*669 TAP_TAPCELL_ROW_22_132
*670 TAP_TAPCELL_ROW_2_56
*671 TAP_TAPCELL_ROW_2_57
*672 TAP_TAPCELL_ROW_2_58
*673 TAP_TAPCELL_ROW_2_59
*674 TAP_TAPCELL_ROW_3_60
*675 TAP_TAPCELL_ROW_3_61
*676 TAP_TAPCELL_ROW_3_62
*677 TAP_TAPCELL_ROW_4_63
*678 TAP_TAPCELL_ROW_4_64
*679 TAP_TAPCELL_ROW_4_65
*680 TAP_TAPCELL_ROW_4_66
*681 TAP_TAPCELL_ROW_5_67
*682 TAP_TAPCELL_ROW_5_68
*683 TAP_TAPCELL_ROW_5_69
*684 TAP_TAPCELL_ROW_6_70
*685 TAP_TAPCELL_ROW_6_71
*686 TAP_TAPCELL_ROW_6_72
*687 TAP_TAPCELL_ROW_6_73
*688 TAP_TAPCELL_ROW_7_74
*689 TAP_TAPCELL_ROW_7_75
*690 TAP_TAPCELL_ROW_7_76
*691 TAP_TAPCELL_ROW_8_77
*692 TAP_TAPCELL_ROW_8_78
*693 TAP_TAPCELL_ROW_8_79
*694 TAP_TAPCELL_ROW_8_80
*695 TAP_TAPCELL_ROW_9_81
*696 TAP_TAPCELL_ROW_9_82
*697 TAP_TAPCELL_ROW_9_83
*698 _111_
*699 _112_
*700 _113_
*701 _114_
*702 _115_
*703 _116_
*704 _117_
*705 _118_
*706 _119_
*707 _120_
*708 _121_
*709 _122_
*710 _123_
*711 _124_
*712 _125_
*713 _126_
*714 _127_
*715 _128_
*716 _129_
*717 _130_
*718 _131_
*719 _132_
*720 _133_
*721 _134_
*722 _135_
*723 _136_
*724 _137_
*725 _138_
*726 _139_
*727 _140_
*728 _141_
*729 _142_
*730 _143_
*731 _144_
*732 _145_
*733 _146_
*734 _147_
*735 _148_
*736 _149_
*737 _150_
*738 _151_
*739 _152_
*740 _153_
*741 _154_
*742 _155_
*743 _156_
*744 _157_
*745 _158_
*746 _159_
*747 _160_
*748 _161_
*749 _162_
*750 _163_
*751 _164_
*752 _165_
*753 _166_
*754 _167_
*755 _168_
*756 _169_
*757 _170_
*758 _171_
*759 _172_
*760 _173_
*761 _174_
*762 _175_
*763 _176_
*764 _177_
*765 _178_
*766 _179_
*767 _180_
*768 _181_
*769 _182_
*770 _183_
*771 _184_
*772 _185_
*773 _186_
*774 _187_
*775 _188_
*776 _189_
*777 _190_
*778 _191_
*779 _192_
*780 _193_
*781 _194_
*782 _195_
*783 _196_
*784 _197_
*785 _198_
*786 _199_
*787 _200_
*788 _201_
*789 _202_
*790 _203_
*791 _204_
*792 _205_
*793 _206_
*794 _207_
*795 _208_
*796 _209_
*797 _210_
*798 _211_
*799 _212_
*800 _213_
*801 _214_
*802 _215_
*803 _216_
*804 _217_
*805 _218_
*806 _219_
*807 _220_
*808 _221_
*809 _222_
*810 _223_
*811 _224_
*812 _224__25
*813 _225_
*814 _225__24
*815 _226_
*816 _226__23
*817 _227_
*818 _228_
*819 _229_
*820 _230_
*821 _231_
*822 _232_
*823 _233_
*824 _234_
*825 _235_
*826 _236_
*827 _237_
*828 _238_
*829 _239_
*830 _240_
*831 _241_
*832 _242_
*833 _243_
*834 _244_
*835 _245_
*836 _246_
*837 _247_
*838 _248_
*839 _249_
*840 _250_
*841 _251_
*842 _252_
*843 _253_
*844 _254_
*845 _255_
*846 _256_
*847 _257_
*848 _258_
*849 _259_
*850 _260_
*851 _261_
*852 _262_
*853 _263_
*854 _264_
*855 _265_
*856 _266_
*857 _267_
*858 _268_
*859 _269_
*860 clkbuf_0_clk
*861 clkbuf_1_0__f_clk
*862 clkbuf_1_1__f_clk
*863 clkload0
*864 fanout11
*865 fanout12
*866 fanout13
*867 fanout14
*868 fanout15
*869 fanout16
*870 fanout17
*871 fanout18
*872 fanout19
*873 fanout20
*874 fanout21
*875 fanout22
*876 input1
*877 input10
*878 input2
*879 input3
*880 input4
*881 input5
*882 input6
*883 input7
*884 input8
*885 input9

*PORTS
address_in[0] I
address_in[1] I
address_in[2] I
clk I
data_in[0] I
data_in[1] I
data_in[2] I
data_in[3] I
data_in[4] I
ena I
rst_n I
signal_bit_out O
write_strobe_in I

*D_NET *3 0.000779812
*CONN
*P address_in[0] I
*I *876:I I *D gf180mcu_fd_sc_mcu7t5v0__clkbuf_1
*CAP
1 address_in[0] 0.000219015
2 *876:I 0.000219015
3 *876:I *704:I 0.000255088
4 *876:I *878:I 4.1916e-05
5 *876:I *883:I 4.47769e-05
*RES
1 address_in[0] *876:I 11.385 
*END

*D_NET *4 0.000755264
*CONN
*P address_in[1] I
*I *878:I I *D gf180mcu_fd_sc_mcu7t5v0__clkbuf_1
*CAP
1 address_in[1] 0.000335716
2 *878:I 0.000335716
3 *878:I *877:I 4.1916e-05
4 *878:I *140:40 0
5 *876:I *878:I 4.1916e-05
*RES
1 address_in[1] *878:I 11.475 
*END

*D_NET *5 0.000568192
*CONN
*P address_in[2] I
*I *879:I I *D gf180mcu_fd_sc_mcu7t5v0__buf_1
*CAP
1 address_in[2] 0.000264364
2 *879:I 0.000264364
3 *879:I *716:I0 2.46572e-06
4 *879:I *880:I 3.69977e-05
5 *879:I *140:26 0
*RES
1 address_in[2] *879:I 10.755 
*END

*D_NET *6 0.00237633
*CONN
*P clk I
*I *860:I I *D gf180mcu_fd_sc_mcu7t5v0__clkbuf_16
*CAP
1 clk 0.00105294
2 *860:I 0.00105294
3 *860:I *719:A1 7.86261e-05
4 *860:I *732:A1 9.58e-05
5 *860:I *813:D 0
6 *860:I *870:I 0
7 *860:I *884:I 4.7038e-05
8 *860:I *885:I 1.56779e-05
9 *860:I *159:12 3.33082e-05
10 *860:I *160:10 0
*RES
1 clk *860:I 11.565 
*END

*D_NET *7 0.000578388
*CONN
*P data_in[0] I
*I *880:I I *D gf180mcu_fd_sc_mcu7t5v0__clkbuf_1
*CAP
1 data_in[0] 0.000218353
2 *880:I 0.000218353
3 *880:I *714:I0 6.27691e-05
4 *880:I *877:I 4.1916e-05
5 *879:I *880:I 3.69977e-05
*RES
1 data_in[0] *880:I 10.935 
*END

*D_NET *8 0.000618967
*CONN
*P data_in[1] I
*I *881:I I *D gf180mcu_fd_sc_mcu7t5v0__clkbuf_1
*CAP
1 data_in[1] 0.000274893
2 *881:I 0.000274893
3 *881:I *712:I0 0
4 *881:I *713:I0 3.21834e-05
5 *881:I *882:I 3.69977e-05
*RES
1 data_in[1] *881:I 10.935 
*END

*D_NET *9 0.000998121
*CONN
*P data_in[2] I
*I *882:I I *D gf180mcu_fd_sc_mcu7t5v0__clkbuf_1
*CAP
1 data_in[2] 0.000410094
2 *882:I 0.000410094
3 *882:I *711:I0 0
4 *882:I *712:I0 8.00409e-05
5 *882:I *883:I 4.47769e-05
6 *882:I *140:40 1.61174e-05
7 *881:I *882:I 3.69977e-05
*RES
1 data_in[2] *882:I 12.375 
*END

*D_NET *10 0.000320154
*CONN
*P data_in[3] I
*I *883:I I *D gf180mcu_fd_sc_mcu7t5v0__clkbuf_1
*CAP
1 data_in[3] 0.0001153
2 *883:I 0.0001153
3 *876:I *883:I 4.47769e-05
4 *882:I *883:I 4.47769e-05
*RES
1 data_in[3] *883:I 10.305 
*END

*D_NET *12 0.00146185
*CONN
*P ena I
*I *884:I I *D gf180mcu_fd_sc_mcu7t5v0__clkbuf_1
*CAP
1 ena 0.000328791
2 *884:I 0.000328791
3 *884:I *801:A1 7.191e-07
4 *884:I *875:I 0.000227873
5 *884:I *885:I 0.00052864
6 *860:I *884:I 4.7038e-05
*RES
1 ena *884:I 16.875 
*END

*D_NET *13 0.00352577
*CONN
*P rst_n I
*I *885:I I *D gf180mcu_fd_sc_mcu7t5v0__buf_1
*CAP
1 rst_n 0.000980592
2 *885:I 0.000980592
3 *885:I *732:A2 0.00092342
4 *885:I *875:I 9.21879e-05
5 *885:I *150:8 4.6613e-06
6 *860:I *885:I 1.56779e-05
7 *884:I *885:I 0.00052864
*RES
1 rst_n *885:I 22.905 
*END

*D_NET *14 0.000615011
*CONN
*P signal_bit_out O
*I *854:Q O *D gf180mcu_fd_sc_mcu7t5v0__dffq_2
*CAP
1 signal_bit_out 0.000307505
2 *854:Q 0.000307505
*RES
1 *854:Q signal_bit_out 11.565 
*END

*D_NET *15 0.000594245
*CONN
*P write_strobe_in I
*I *877:I I *D gf180mcu_fd_sc_mcu7t5v0__buf_1
*CAP
1 write_strobe_in 0.000238737
2 *877:I 0.000238737
3 *877:I *137:12 3.29394e-05
4 *878:I *877:I 4.1916e-05
5 *880:I *877:I 4.1916e-05
*RES
1 write_strobe_in *877:I 10.935 
*END

*D_NET *16 0.0016149
*CONN
*I *806:D I *D gf180mcu_fd_sc_mcu7t5v0__dffrnq_1
*I *722:ZN O *D gf180mcu_fd_sc_mcu7t5v0__nor2_1
*CAP
1 *806:D 0.000293037
2 *722:ZN 0.000293037
3 *806:D *722:A1 0.000306921
4 *806:D *125:12 0.000458394
5 *806:D *126:8 0.000116655
6 *806:D *126:19 0.000146852
*RES
1 *722:ZN *806:D 22.41 
*END

*D_NET *17 0.00228815
*CONN
*I *807:D I *D gf180mcu_fd_sc_mcu7t5v0__dffrnq_1
*I *724:ZN O *D gf180mcu_fd_sc_mcu7t5v0__nor2_1
*CAP
1 *807:D 0.000199796
2 *724:ZN 0.000199796
3 *807:D *720:A1 3.54696e-05
4 *807:D *724:A1 0.000870375
5 *807:D *724:A2 0.000222002
6 *807:D *806:CLK 0.000150162
7 *807:D *810:CLK 0.000161479
8 *807:D *126:19 8.68398e-06
9 *807:D *149:41 4.08007e-05
10 *807:D *149:45 0.000399589
*RES
1 *724:ZN *807:D 21.87 
*END

*D_NET *18 0.00286074
*CONN
*I *808:D I *D gf180mcu_fd_sc_mcu7t5v0__dffrnq_1
*I *727:ZN O *D gf180mcu_fd_sc_mcu7t5v0__nor3_1
*CAP
1 *808:D 0.000506077
2 *727:ZN 0.000506077
3 *808:D *726:A2 0.000154006
4 *808:D *808:CLK 0.000510941
5 *808:D *85:51 3.12451e-05
6 *808:D *129:8 0.000109275
7 *808:D *135:8 0.000865563
8 *808:D *150:91 0.000177559
*RES
1 *727:ZN *808:D 14.94 
*END

*D_NET *19 0.000914789
*CONN
*I *809:D I *D gf180mcu_fd_sc_mcu7t5v0__dffrnq_1
*I *730:ZN O *D gf180mcu_fd_sc_mcu7t5v0__nor2_1
*CAP
1 *809:D 0.000280084
2 *730:ZN 0.000280084
3 *809:D *730:A1 3.65336e-05
4 *809:D *731:A1 0.00016201
5 *809:D *731:A2 0.000151417
6 *809:D *124:10 4.6613e-06
7 *809:D *149:10 0
*RES
1 *730:ZN *809:D 20.34 
*END

*D_NET *20 0.00812904
*CONN
*I *810:D I *D gf180mcu_fd_sc_mcu7t5v0__dffrnq_1
*I *732:ZN O *D gf180mcu_fd_sc_mcu7t5v0__nor2_1
*CAP
1 *810:D 0.00143152
2 *732:ZN 0.00143152
3 *810:D *717:A1 6.06287e-05
4 *810:D *717:A2 0.000158788
5 *810:D *721:B 0
6 *810:D *721:C 0.000141558
7 *810:D *722:A2 2.56384e-05
8 *810:D *723:A1 3.54696e-05
9 *810:D *723:A2 4.8063e-05
10 *810:D *732:A1 0.00187644
11 *810:D *739:B 0.000303252
12 *810:D *740:A1 2.30981e-05
13 *810:D *743:A1 0.000653848
14 *810:D *743:A2 0.000168625
15 *810:D *744:A2 0
16 *810:D *745:A4 0
17 *810:D *800:A1 0.000118507
18 *810:D *801:A1 3.15085e-06
19 *810:D *807:RN 5.3647e-05
20 *810:D *861:I 0.000218639
21 *810:D *145:33 0
22 *810:D *190:42 0.000459052
23 *810:D *190:46 7.191e-07
24 *810:D *191:14 0.000151137
25 *810:D *191:34 0.000247389
26 *810:D *191:47 0.000518361
*RES
1 *732:ZN *810:D 33.93 
*END

*D_NET *21 0.0191589
*CONN
*I *747:A1 I *D gf180mcu_fd_sc_mcu7t5v0__nor2_1
*I *758:A1 I *D gf180mcu_fd_sc_mcu7t5v0__nor2_1
*I *738:A1 I *D gf180mcu_fd_sc_mcu7t5v0__nor2_1
*I *733:A2 I *D gf180mcu_fd_sc_mcu7t5v0__nor2_1
*I *761:A1 I *D gf180mcu_fd_sc_mcu7t5v0__nor2_1
*I *833:SETN I *D gf180mcu_fd_sc_mcu7t5v0__dffsnq_1
*I *767:A1 I *D gf180mcu_fd_sc_mcu7t5v0__nor2_1
*I *765:A1 I *D gf180mcu_fd_sc_mcu7t5v0__nor2_1
*I *763:A1 I *D gf180mcu_fd_sc_mcu7t5v0__nor2_1
*I *703:ZN O *D gf180mcu_fd_sc_mcu7t5v0__inv_2
*CAP
1 *747:A1 0.000252023
2 *758:A1 0.00038299
3 *738:A1 0.000561214
4 *733:A2 0.000153868
5 *761:A1 5.93803e-05
6 *833:SETN 0.000736286
7 *767:A1 0
8 *765:A1 3.42999e-05
9 *763:A1 3.44897e-05
10 *703:ZN 0.000151275
11 *21:99 0.000813576
12 *21:28 0.000220497
13 *21:26 0.000310096
14 *21:24 0.00137184
15 *21:20 0.00124212
16 *21:18 0.00155693
17 *21:12 0.00175904
18 *21:8 0.000830178
19 *733:A2 *734:A2 0
20 *733:A2 *92:12 0
21 *733:A2 *148:74 9.76136e-06
22 *733:A2 *172:8 0
23 *738:A1 *821:D 0.000444513
24 *738:A1 *821:CLK 3.10003e-05
25 *738:A1 *144:17 0
26 *738:A1 *144:33 1.74796e-05
27 *747:A1 *746:A1 0
28 *747:A1 *746:A2 7.96333e-06
29 *747:A1 *794:A2 9.41326e-05
30 *747:A1 *794:B2 4.53185e-05
31 *747:A1 *824:D 0.000354728
32 *747:A1 *145:33 0.000373016
33 *758:A1 *794:A2 0.000112472
34 *758:A1 *794:B2 5.38516e-05
35 *758:A1 *76:14 1.96369e-05
36 *761:A1 *698:I 2.31089e-05
37 *761:A1 *759:A1 3.55118e-05
38 *761:A1 *760:A1 0
39 *761:A1 *106:14 1.86887e-06
40 *765:A1 *766:B2 0.00018838
41 *765:A1 *767:A2 0.000182206
42 *765:A1 *832:D 1.68605e-05
43 *833:SETN *704:I 0
44 *833:SETN *710:A1 8.32356e-05
45 *833:SETN *840:CLK 0
46 *833:SETN *73:8 0
47 *833:SETN *141:24 0
48 *833:SETN *161:10 3.11077e-05
49 *21:8 *794:B1 3.57187e-05
50 *21:8 *794:B2 1.77397e-05
51 *21:8 *76:14 6.93035e-05
52 *21:12 *709:I 0.000911029
53 *21:12 *794:B1 2.82502e-05
54 *21:12 *824:D 0
55 *21:12 *144:23 0
56 *21:18 *737:A1 0.000565072
57 *21:18 *774:A1 0.000101624
58 *21:18 *817:D 0.000827878
59 *21:18 *820:D 0
60 *21:18 *144:23 0
61 *21:18 *144:33 8.43025e-05
62 *21:20 *698:I 0.000504221
63 *21:20 *733:A1 0
64 *21:20 *759:A1 0.000159425
65 *21:20 *760:A2 0
66 *21:20 *774:A1 0.000583535
67 *21:20 *775:B 0.000289978
68 *21:20 *837:D 0.000996773
69 *21:20 *69:8 0
70 *21:20 *69:10 0
71 *21:20 *148:70 5.39084e-05
72 *21:20 *171:12 9.4913e-06
73 *21:20 *171:44 3.29946e-05
74 *21:24 *760:A2 0
75 *21:24 *760:B2 0.000580937
76 *21:24 *761:A2 0.00032797
77 *21:24 *766:A1 0
78 *21:24 *767:A2 0
79 *21:24 *829:D 0
80 *21:24 *832:D 6.34031e-05
81 *21:24 *69:10 0
82 *21:24 *69:12 0
83 *21:24 *106:14 5.00391e-05
84 *21:26 *704:I 0
85 *21:26 *141:24 0
86 *21:26 *141:35 0
87 *21:28 *704:I 0
88 *21:28 *767:A2 5.92117e-05
89 *21:28 *141:35 0
90 *21:99 *794:B1 1.35364e-05
91 *21:99 *824:D 0
92 *21:99 *76:14 0.000196261
*RES
1 *703:ZN *21:8 10.17 
2 *21:8 *21:12 9.09 
3 *21:12 *21:18 11.16 
4 *21:18 *21:20 8.55 
5 *21:20 *21:24 9.81 
6 *21:24 *21:26 0.99 
7 *21:26 *21:28 0.99 
8 *21:28 *763:A1 4.77 
9 *21:28 *765:A1 14.49 
10 *21:26 *767:A1 4.5 
11 *21:24 *833:SETN 18.9 
12 *21:20 *761:A1 9.45 
13 *21:18 *733:A2 9.9 
14 *21:12 *738:A1 8.73 
15 *21:8 *21:99 6.21 
16 *21:99 *758:A1 7.11 
17 *21:99 *747:A1 7.83 
*END

*D_NET *22 0.00152085
*CONN
*I *856:SETN I *D gf180mcu_fd_sc_mcu7t5v0__dffsnq_1
*I *802:ZN O *D gf180mcu_fd_sc_mcu7t5v0__clkinv_1
*CAP
1 *856:SETN 0.000575488
2 *802:ZN 0.000575488
3 *856:SETN *715:A1 9.34436e-06
4 *856:SETN *841:RN 0
5 *856:SETN *146:62 0
6 *856:SETN *146:75 0.000271178
7 *856:SETN *154:12 8.93537e-05
*RES
1 *802:ZN *856:SETN 13.14 
*END

*D_NET *23 0.000568321
*CONN
*I *857:SETN I *D gf180mcu_fd_sc_mcu7t5v0__dffsnq_1
*I *803:ZN O *D gf180mcu_fd_sc_mcu7t5v0__clkinv_1
*CAP
1 *857:SETN 0.000100443
2 *803:ZN 0.000100443
3 *857:SETN *803:I 0.000362773
4 *857:SETN *858:CLK 4.6613e-06
*RES
1 *803:ZN *857:SETN 9.99 
*END

*D_NET *24 0.00117414
*CONN
*I *858:RN I *D gf180mcu_fd_sc_mcu7t5v0__dffrnq_1
*I *804:ZN O *D gf180mcu_fd_sc_mcu7t5v0__clkinv_1
*CAP
1 *858:RN 0.000327898
2 *804:ZN 0.000327898
3 *858:RN *712:I1 0.000298894
4 *858:RN *762:B2 0.000219448
5 *858:RN *803:I 0
*RES
1 *804:ZN *858:RN 21.6 
*END

*D_NET *25 0.000357776
*CONN
*I *859:RN I *D gf180mcu_fd_sc_mcu7t5v0__dffrnq_1
*I *805:ZN O *D gf180mcu_fd_sc_mcu7t5v0__clkinv_1
*CAP
1 *859:RN 6.31671e-05
2 *805:ZN 6.31671e-05
3 *859:RN *146:77 0.000231442
*RES
1 *805:ZN *859:RN 9.63 
*END

*D_NET *26 0.00171132
*CONN
*I *831:D I *D gf180mcu_fd_sc_mcu7t5v0__dffq_1
*I *765:ZN O *D gf180mcu_fd_sc_mcu7t5v0__nor2_1
*CAP
1 *831:D 0.000298414
2 *765:ZN 0.000298414
3 *831:D *712:I1 0.00023712
4 *831:D *762:B2 7.33904e-05
5 *831:D *764:B2 0.000655941
6 *831:D *830:D 1.94149e-05
7 *831:D *141:35 0.000128628
*RES
1 *765:ZN *831:D 21.24 
*END

*D_NET *27 0.000690734
*CONN
*I *832:D I *D gf180mcu_fd_sc_mcu7t5v0__dffq_1
*I *767:ZN O *D gf180mcu_fd_sc_mcu7t5v0__nor2_1
*CAP
1 *832:D 0.000215115
2 *767:ZN 0.000215115
3 *832:D *767:A2 0.000180241
4 *765:A1 *832:D 1.68605e-05
5 *21:24 *832:D 6.34031e-05
*RES
1 *767:ZN *832:D 20.07 
*END

*D_NET *28 0.000566043
*CONN
*I *833:D I *D gf180mcu_fd_sc_mcu7t5v0__dffsnq_1
*I *716:Z O *D gf180mcu_fd_sc_mcu7t5v0__mux2_2
*CAP
1 *833:D 0.000218207
2 *716:Z 0.000218207
3 *833:D *716:I1 3.94131e-05
4 *833:D *716:S 4.76605e-05
5 *833:D *154:12 4.25555e-05
*RES
1 *716:Z *833:D 10.62 
*END

*D_NET *29 0.00102776
*CONN
*I *834:D I *D gf180mcu_fd_sc_mcu7t5v0__dffq_1
*I *769:ZN O *D gf180mcu_fd_sc_mcu7t5v0__aoi21_1
*CAP
1 *834:D 0.000307545
2 *769:ZN 0.000307545
3 *834:D *769:A2 0.000235912
4 *834:D *769:B 0.000176759
5 *834:D *141:69 0
*RES
1 *769:ZN *834:D 11.79 
*END

*D_NET *30 0.00154116
*CONN
*I *835:D I *D gf180mcu_fd_sc_mcu7t5v0__dffq_1
*I *771:ZN O *D gf180mcu_fd_sc_mcu7t5v0__aoi21_1
*CAP
1 *835:D 0.000469537
2 *771:ZN 0.000469537
3 *835:D *762:A2 0
4 *835:D *771:A2 0.000423955
5 *835:D *771:B 3.22122e-05
6 *835:D *773:A2 0
7 *835:D *835:CLK 0.000112253
8 *835:D *141:73 3.36658e-05
9 *835:D *167:8 0
*RES
1 *771:ZN *835:D 22.23 
*END

*D_NET *31 0.000510731
*CONN
*I *836:D I *D gf180mcu_fd_sc_mcu7t5v0__dffq_1
*I *773:ZN O *D gf180mcu_fd_sc_mcu7t5v0__aoi21_1
*CAP
1 *836:D 0.000192248
2 *773:ZN 0.000192248
3 *836:D *772:B 0
4 *836:D *773:A2 0.000107798
5 *836:D *141:73 1.84368e-05
*RES
1 *773:ZN *836:D 10.53 
*END

*D_NET *32 0.00162832
*CONN
*I *837:D I *D gf180mcu_fd_sc_mcu7t5v0__dffq_1
*I *775:ZN O *D gf180mcu_fd_sc_mcu7t5v0__aoi21_1
*CAP
1 *837:D 0.000144965
2 *775:ZN 0.000144965
3 *837:D *769:A2 9.49471e-06
4 *837:D *148:70 9.34136e-05
5 *837:D *171:44 0.000238713
6 *21:20 *837:D 0.000996773
*RES
1 *775:ZN *837:D 20.61 
*END

*D_NET *33 0.00209019
*CONN
*I *839:D I *D gf180mcu_fd_sc_mcu7t5v0__dffsnq_1
*I *776:Z O *D gf180mcu_fd_sc_mcu7t5v0__mux2_2
*CAP
1 *839:D 0.000560703
2 *776:Z 0.000560703
3 *839:D *776:I0 0.000299724
4 *839:D *778:I1 7.03023e-05
5 *839:D *840:RN 0.000252915
6 *839:D *138:8 0
7 *839:D *138:16 0
8 *839:D *138:80 0
9 *839:D *138:91 0
10 *839:D *146:10 0.000275309
11 *839:D *146:43 4.65481e-05
12 *839:D *146:47 2.39814e-05
*RES
1 *776:Z *839:D 23.85 
*END

*D_NET *34 0.00172433
*CONN
*I *840:D I *D gf180mcu_fd_sc_mcu7t5v0__dffrnq_1
*I *777:Z O *D gf180mcu_fd_sc_mcu7t5v0__mux2_2
*CAP
1 *840:D 0.000323577
2 *777:Z 0.000323577
3 *840:D *778:I1 0
4 *840:D *840:RN 2.03826e-05
5 *840:D *161:10 0.00105679
*RES
1 *777:Z *840:D 21.6 
*END

*D_NET *35 0.000819813
*CONN
*I *841:D I *D gf180mcu_fd_sc_mcu7t5v0__dffrnq_1
*I *778:Z O *D gf180mcu_fd_sc_mcu7t5v0__mux2_2
*CAP
1 *841:D 0.000334193
2 *778:Z 0.000334193
3 *841:D *140:26 0.000151427
*RES
1 *778:Z *841:D 11.7 
*END

*D_NET *36 0.00220284
*CONN
*I *842:D I *D gf180mcu_fd_sc_mcu7t5v0__dffrnq_1
*I *779:Z O *D gf180mcu_fd_sc_mcu7t5v0__mux2_2
*CAP
1 *842:D 0.000704415
2 *779:Z 0.000704415
3 *842:D *779:I0 0.000182206
4 *842:D *843:D 0
5 *842:D *138:32 0
6 *842:D *146:47 0.0006118
*RES
1 *779:Z *842:D 23.49 
*END

*D_NET *37 0.000725319
*CONN
*I *843:D I *D gf180mcu_fd_sc_mcu7t5v0__dffrnq_1
*I *780:Z O *D gf180mcu_fd_sc_mcu7t5v0__mux2_2
*CAP
1 *843:D 0.000334285
2 *780:Z 0.000334285