*SPEF "ieee 1481-1999"
*DESIGN "tiny_tonegen"
*DATE "19:02:26 Sunday November 30, 2025"
*VENDOR "The OpenROAD Project"
*PROGRAM "OpenROAD"
*VERSION "v2.0-16235-gedf00dff9"
*DESIGN_FLOW "NAME_SCOPE LOCAL" "PIN_CAP NONE"
*DIVIDER /
*DELIMITER :
*BUS_DELIMITER []
*T_UNIT 1 NS
*C_UNIT 1 PF
*R_UNIT 1 OHM
*L_UNIT 1 HENRY

*NAME_MAP
*3 address_in[0]
*4 address_in[1]
*5 address_in[2]
*6 clk
*7 data_in[0]
*8 data_in[1]
*9 data_in[2]
*10 data_in[3]
*11 data_in[4]
*12 ena
*13 rst_n
*14 signal_bit_out
*15 write_strobe_in
*16 _000_
*17 _003_
*18 _004_
*19 _005_
*20 _006_
*21 _007_
*22 _012_
*23 _015_
*24 _016_
*25 _017_
*26 _018_
*27 _019_
*28 _020_
*29 _021_
*30 _024_
*31 _025_
*32 _026_
*33 _027_
*34 _028_
*35 _029_
*36 _030_
*37 _031_
*38 _032_
*39 _033_
*40 _034_
*41 _035_
*42 _036_
*43 _037_
*44 _038_
*45 _039_
*46 _040_
*47 _041_
*48 _042_
*49 _043_
*50 _044_
*51 _045_
*52 _046_
*53 _047_
*54 _048_
*55 _049_
*56 _050_
*57 _051_
*58 _052_
*59 _053_
*60 _054_
*61 _055_
*62 _056_
*63 _057_
*64 _058_
*65 _059_
*66 _060_
*67 _061_
*68 _062_
*69 _063_
*70 _064_
*71 _065_
*72 _066_
*73 _067_
*74 _068_
*75 _069_
*76 _070_
*77 _071_
*78 _072_
*79 _073_
*80 _074_
*81 _075_
*82 _076_
*83 _077_
*84 _078_
*85 _079_
*86 _080_
*87 _081_
*88 _082_
*89 _083_
*90 _084_
*91 _085_
*92 _086_
*93 _087_
*94 _088_
*95 _089_
*96 _090_
*97 _091_
*98 _092_
*99 _093_
*100 _094_
*101 _095_
*102 _096_
*103 _097_
*104 _098_
*105 _099_
*106 _100_
*107 _101_
*108 _102_
*109 _103_
*110 _104_
*111 _105_
*112 _106_
*113 _107_
*114 _108_
*115 _109_
*116 _110_
*117 _111_
*118 _112_
*119 _113_
*120 _114_
*121 _115_
*122 clk_scaled
*123 clk_scaler\.counter\[0\]
*124 clk_scaler\.counter\[10\]
*125 clk_scaler\.counter\[11\]
*126 clk_scaler\.counter\[1\]
*127 clk_scaler\.counter\[2\]
*128 clk_scaler\.counter\[3\]
*129 clk_scaler\.counter\[4\]
*130 clk_scaler\.counter\[5\]
*131 clk_scaler\.counter\[6\]
*132 clk_scaler\.counter\[7\]
*133 clk_scaler\.counter\[8\]
*134 clk_scaler\.counter\[9\]
*135 clknet_0_clk
*136 clknet_1_0__leaf_clk
*137 clknet_1_1__leaf_clk
*138 net1
*139 net10
*140 net11
*141 net12
*142 net13
*143 net14
*144 net15
*145 net16
*146 net17
*147 net18
*148 net19
*149 net2
*150 net20
*151 net21
*152 net22
*153 net23
*154 net24
*155 net25
*156 net26
*157 net27
*158 net3
*159 net4
*160 net5
*161 net6
*162 net7
*163 net8
*164 net9
*165 signal_gen\.enableA
*166 signal_gen\.periodA\[0\]
*167 signal_gen\.periodA\[1\]
*168 signal_gen\.periodA\[2\]
*169 signal_gen\.periodA\[3\]
*170 signal_gen\.periodA\[4\]
*171 signal_gen\.tonegenA\.counter\[0\]
*172 signal_gen\.tonegenA\.counter\[10\]
*173 signal_gen\.tonegenA\.counter\[11\]
*174 signal_gen\.tonegenA\.counter\[1\]
*175 signal_gen\.tonegenA\.counter\[2\]
*176 signal_gen\.tonegenA\.counter\[3\]
*177 signal_gen\.tonegenA\.counter\[4\]
*178 signal_gen\.tonegenA\.counter\[5\]
*179 signal_gen\.tonegenA\.counter\[6\]
*180 signal_gen\.tonegenA\.counter\[7\]
*181 signal_gen\.tonegenA\.counter\[8\]
*182 signal_gen\.tonegenA\.counter\[9\]
*183 FILLER_0_104
*184 FILLER_0_112
*185 FILLER_0_114
*186 FILLER_0_121
*187 FILLER_0_129
*188 FILLER_0_133
*189 FILLER_0_135
*190 FILLER_0_138
*191 FILLER_0_146
*192 FILLER_0_150
*193 FILLER_0_157
*194 FILLER_0_165
*195 FILLER_0_169
*196 FILLER_0_172
*197 FILLER_0_2
*198 FILLER_0_206
*199 FILLER_0_240
*200 FILLER_0_256
*201 FILLER_0_264
*202 FILLER_0_268
*203 FILLER_0_270
*204 FILLER_0_36
*205 FILLER_0_70
*206 FILLER_10_103
*207 FILLER_10_113
*208 FILLER_10_117
*209 FILLER_10_162
*210 FILLER_10_174
*211 FILLER_10_190
*212 FILLER_10_198
*213 FILLER_10_2
*214 FILLER_10_247
*215 FILLER_10_249
*216 FILLER_10_255
*217 FILLER_10_34
*218 FILLER_10_87
*219 FILLER_11_130
*220 FILLER_11_138
*221 FILLER_11_142
*222 FILLER_11_150
*223 FILLER_11_166
*224 FILLER_11_192
*225 FILLER_11_2
*226 FILLER_11_226
*227 FILLER_11_234
*228 FILLER_11_236
*229 FILLER_11_41
*230 FILLER_11_6
*231 FILLER_11_69
*232 FILLER_11_80
*233 FILLER_12_10
*234 FILLER_12_104
*235 FILLER_12_107
*236 FILLER_12_115
*237 FILLER_12_12
*238 FILLER_12_123
*239 FILLER_12_131
*240 FILLER_12_140
*241 FILLER_12_156
*242 FILLER_12_164
*243 FILLER_12_168
*244 FILLER_12_2
*245 FILLER_12_218
*246 FILLER_12_226
*247 FILLER_12_244
*248 FILLER_12_25
*249 FILLER_12_255
*250 FILLER_12_263
*251 FILLER_12_33
*252 FILLER_12_37
*253 FILLER_12_39
*254 FILLER_12_58
*255 FILLER_12_72
*256 FILLER_13_133
*257 FILLER_13_137
*258 FILLER_13_139
*259 FILLER_13_142
*260 FILLER_13_146
*261 FILLER_13_151
*262 FILLER_13_159
*263 FILLER_13_2
*264 FILLER_13_203
*265 FILLER_13_220
*266 FILLER_13_228
*267 FILLER_13_230
*268 FILLER_13_50
*269 FILLER_13_6
*270 FILLER_13_89
*271 FILLER_13_93
*272 FILLER_14_104
*273 FILLER_14_111
*274 FILLER_14_119
*275 FILLER_14_173
*276 FILLER_14_196
*277 FILLER_14_198
*278 FILLER_14_24
*279 FILLER_14_247
*280 FILLER_14_255
*281 FILLER_14_263
*282 FILLER_14_28
*283 FILLER_14_30
*284 FILLER_14_37
*285 FILLER_14_8
*286 FILLER_14_96
*287 FILLER_15_11
*288 FILLER_15_114
*289 FILLER_15_122
*290 FILLER_15_131
*291 FILLER_15_139
*292 FILLER_15_142
*293 FILLER_15_158
*294 FILLER_15_193
*295 FILLER_15_2
*296 FILLER_15_204
*297 FILLER_15_208
*298 FILLER_15_218
*299 FILLER_15_234
*300 FILLER_15_236
*301 FILLER_15_241
*302 FILLER_15_257
*303 FILLER_15_265
*304 FILLER_15_269
*305 FILLER_15_27
*306 FILLER_15_6
*307 FILLER_15_65
*308 FILLER_15_69
*309 FILLER_16_111
*310 FILLER_16_119
*311 FILLER_16_121
*312 FILLER_16_160
*313 FILLER_16_174
*314 FILLER_16_18
*315 FILLER_16_2
*316 FILLER_16_247
*317 FILLER_16_26
*318 FILLER_16_263
*319 FILLER_16_30
*320 FILLER_17_133
*321 FILLER_17_137
*322 FILLER_17_139
*323 FILLER_17_142
*324 FILLER_17_2
*325 FILLER_17_206
*326 FILLER_17_212
*327 FILLER_17_244
*328 FILLER_17_260
*329 FILLER_17_268
*330 FILLER_17_270
*331 FILLER_17_34
*332 FILLER_17_90
*333 FILLER_17_94
*334 FILLER_18_10
*335 FILLER_18_103
*336 FILLER_18_107
*337 FILLER_18_115
*338 FILLER_18_119
*339 FILLER_18_124
*340 FILLER_18_128
*341 FILLER_18_130
*342 FILLER_18_160
*343 FILLER_18_168
*344 FILLER_18_172
*345 FILLER_18_174
*346 FILLER_18_177
*347 FILLER_18_2
*348 FILLER_18_241
*349 FILLER_18_247
*350 FILLER_18_26
*351 FILLER_18_263
*352 FILLER_18_91
*353 FILLER_18_99
*354 FILLER_19_104
*355 FILLER_19_127
*356 FILLER_19_157
*357 FILLER_19_189
*358 FILLER_19_205
*359 FILLER_19_209
*360 FILLER_19_212
*361 FILLER_19_244
*362 FILLER_19_260
*363 FILLER_19_268
*364 FILLER_19_270
*365 FILLER_19_36
*366 FILLER_19_44
*367 FILLER_19_49
*368 FILLER_19_63
*369 FILLER_19_67
*370 FILLER_19_69
*371 FILLER_19_72
*372 FILLER_1_136
*373 FILLER_1_142
*374 FILLER_1_2
*375 FILLER_1_206
*376 FILLER_1_212
*377 FILLER_1_244
*378 FILLER_1_260
*379 FILLER_1_268
*380 FILLER_1_270
*381 FILLER_1_66
*382 FILLER_1_72
*383 FILLER_20_101
*384 FILLER_20_107
*385 FILLER_20_111
*386 FILLER_20_113
*387 FILLER_20_151
*388 FILLER_20_167
*389 FILLER_20_177
*390 FILLER_20_2
*391 FILLER_20_241
*392 FILLER_20_247
*393 FILLER_20_263
*394 FILLER_20_34
*395 FILLER_20_37
*396 FILLER_21_104
*397 FILLER_21_124
*398 FILLER_21_142
*399 FILLER_21_206
*400 FILLER_21_212
*401 FILLER_21_244
*402 FILLER_21_260
*403 FILLER_21_268
*404 FILLER_21_270
*405 FILLER_21_36
*406 FILLER_21_68
*407 FILLER_21_72
*408 FILLER_22_104
*409 FILLER_22_108
*410 FILLER_22_133
*411 FILLER_22_135
*412 FILLER_22_138
*413 FILLER_22_145
*414 FILLER_22_161
*415 FILLER_22_169
*416 FILLER_22_172
*417 FILLER_22_2
*418 FILLER_22_206
*419 FILLER_22_240
*420 FILLER_22_256
*421 FILLER_22_264
*422 FILLER_22_268
*423 FILLER_22_270
*424 FILLER_22_36
*425 FILLER_22_70
*426 FILLER_2_101
*427 FILLER_2_107
*428 FILLER_2_171
*429 FILLER_2_177
*430 FILLER_2_2
*431 FILLER_2_241
*432 FILLER_2_247
*433 FILLER_2_263
*434 FILLER_2_34
*435 FILLER_2_37
*436 FILLER_3_136
*437 FILLER_3_142
*438 FILLER_3_2
*439 FILLER_3_206
*440 FILLER_3_212
*441 FILLER_3_244
*442 FILLER_3_260
*443 FILLER_3_268
*444 FILLER_3_270
*445 FILLER_3_66
*446 FILLER_3_72
*447 FILLER_4_101
*448 FILLER_4_107
*449 FILLER_4_171
*450 FILLER_4_177
*451 FILLER_4_2
*452 FILLER_4_241
*453 FILLER_4_247
*454 FILLER_4_263
*455 FILLER_4_34
*456 FILLER_4_37
*457 FILLER_5_104
*458 FILLER_5_112
*459 FILLER_5_129
*460 FILLER_5_137
*461 FILLER_5_139
*462 FILLER_5_150
*463 FILLER_5_165
*464 FILLER_5_197
*465 FILLER_5_2
*466 FILLER_5_205
*467 FILLER_5_209
*468 FILLER_5_212
*469 FILLER_5_244
*470 FILLER_5_260
*471 FILLER_5_264
*472 FILLER_5_66
*473 FILLER_5_72
*474 FILLER_6_101
*475 FILLER_6_177
*476 FILLER_6_2
*477 FILLER_6_223
*478 FILLER_6_239
*479 FILLER_6_243
*480 FILLER_6_247
*481 FILLER_6_263
*482 FILLER_6_34
*483 FILLER_6_37
*484 FILLER_7_129
*485 FILLER_7_137
*486 FILLER_7_139
*487 FILLER_7_146
*488 FILLER_7_154
*489 FILLER_7_158
*490 FILLER_7_18
*491 FILLER_7_2
*492 FILLER_7_208
*493 FILLER_7_220
*494 FILLER_7_236
*495 FILLER_7_238
*496 FILLER_7_251
*497 FILLER_7_267
*498 FILLER_7_56
*499 FILLER_7_64
*500 FILLER_7_68
*501 FILLER_7_80
*502 FILLER_7_88
*503 FILLER_7_92
*504 FILLER_7_94
*505 FILLER_8_102
*506 FILLER_8_104
*507 FILLER_8_113
*508 FILLER_8_117
*509 FILLER_8_119
*510 FILLER_8_124
*511 FILLER_8_128
*512 FILLER_8_130
*513 FILLER_8_15
*514 FILLER_8_159
*515 FILLER_8_161
*516 FILLER_8_2
*517 FILLER_8_207
*518 FILLER_8_23
*519 FILLER_8_25
*520 FILLER_8_255
*521 FILLER_8_32
*522 FILLER_8_34
*523 FILLER_8_37
*524 FILLER_8_45
*525 FILLER_8_49
*526 FILLER_8_51
*527 FILLER_8_6
*528 FILLER_8_8
*529 FILLER_8_94
*530 FILLER_9_106
*531 FILLER_9_119
*532 FILLER_9_135
*533 FILLER_9_142
*534 FILLER_9_160
*535 FILLER_9_162
*536 FILLER_9_194
*537 FILLER_9_203
*538 FILLER_9_207
*539 FILLER_9_209
*540 FILLER_9_218
*541 FILLER_9_226
*542 FILLER_9_228
*543 FILLER_9_49
*544 FILLER_9_64
*545 FILLER_9_68
*546 PHY_EDGE_ROW_0_Left_23
*547 PHY_EDGE_ROW_0_Right_0
*548 PHY_EDGE_ROW_10_Left_33
*549 PHY_EDGE_ROW_10_Right_10
*550 PHY_EDGE_ROW_11_Left_34
*551 PHY_EDGE_ROW_11_Right_11
*552 PHY_EDGE_ROW_12_Left_35
*553 PHY_EDGE_ROW_12_Right_12
*554 PHY_EDGE_ROW_13_Left_36
*555 PHY_EDGE_ROW_13_Right_13
*556 PHY_EDGE_ROW_14_Left_37
*557 PHY_EDGE_ROW_14_Right_14
*558 PHY_EDGE_ROW_15_Left_38
*559 PHY_EDGE_ROW_15_Right_15
*560 PHY_EDGE_ROW_16_Left_39
*561 PHY_EDGE_ROW_16_Right_16
*562 PHY_EDGE_ROW_17_Left_40
*563 PHY_EDGE_ROW_17_Right_17
*564 PHY_EDGE_ROW_18_Left_41
*565 PHY_EDGE_ROW_18_Right_18
*566 PHY_EDGE_ROW_19_Left_42
*567 PHY_EDGE_ROW_19_Right_19
*568 PHY_EDGE_ROW_1_Left_24
*569 PHY_EDGE_ROW_1_Right_1
*570 PHY_EDGE_ROW_20_Left_43
*571 PHY_EDGE_ROW_20_Right_20
*572 PHY_EDGE_ROW_21_Left_44
*573 PHY_EDGE_ROW_21_Right_21
*574 PHY_EDGE_ROW_22_Left_45
*575 PHY_EDGE_ROW_22_Right_22
*576 PHY_EDGE_ROW_2_Left_25
*577 PHY_EDGE_ROW_2_Right_2
*578 PHY_EDGE_ROW_3_Left_26
*579 PHY_EDGE_ROW_3_Right_3
*580 PHY_EDGE_ROW_4_Left_27
*581 PHY_EDGE_ROW_4_Right_4
*582 PHY_EDGE_ROW_5_Left_28
*583 PHY_EDGE_ROW_5_Right_5
*584 PHY_EDGE_ROW_6_Left_29
*585 PHY_EDGE_ROW_6_Right_6
*586 PHY_EDGE_ROW_7_Left_30
*587 PHY_EDGE_ROW_7_Right_7
*588 PHY_EDGE_ROW_8_Left_31
*589 PHY_EDGE_ROW_8_Right_8
*590 PHY_EDGE_ROW_9_Left_32
*591 PHY_EDGE_ROW_9_Right_9
*592 TAP_TAPCELL_ROW_0_46
*593 TAP_TAPCELL_ROW_0_47
*594 TAP_TAPCELL_ROW_0_48
*595 TAP_TAPCELL_ROW_0_49
*596 TAP_TAPCELL_ROW_0_50
*597 TAP_TAPCELL_ROW_0_51
*598 TAP_TAPCELL_ROW_0_52
*599 TAP_TAPCELL_ROW_10_84
*600 TAP_TAPCELL_ROW_10_85
*601 TAP_TAPCELL_ROW_10_86
*602 TAP_TAPCELL_ROW_10_87
*603 TAP_TAPCELL_ROW_11_88
*604 TAP_TAPCELL_ROW_11_89
*605 TAP_TAPCELL_ROW_11_90
*606 TAP_TAPCELL_ROW_12_91
*607 TAP_TAPCELL_ROW_12_92
*608 TAP_TAPCELL_ROW_12_93
*609 TAP_TAPCELL_ROW_12_94
*610 TAP_TAPCELL_ROW_13_95
*611 TAP_TAPCELL_ROW_13_96
*612 TAP_TAPCELL_ROW_13_97
*613 TAP_TAPCELL_ROW_14_100
*614 TAP_TAPCELL_ROW_14_101
*615 TAP_TAPCELL_ROW_14_98
*616 TAP_TAPCELL_ROW_14_99
*617 TAP_TAPCELL_ROW_15_102
*618 TAP_TAPCELL_ROW_15_103
*619 TAP_TAPCELL_ROW_15_104
*620 TAP_TAPCELL_ROW_16_105
*621 TAP_TAPCELL_ROW_16_106
*622 TAP_TAPCELL_ROW_16_107
*623 TAP_TAPCELL_ROW_16_108
*624 TAP_TAPCELL_ROW_17_109
*625 TAP_TAPCELL_ROW_17_110
*626 TAP_TAPCELL_ROW_17_111
*627 TAP_TAPCELL_ROW_18_112
*628 TAP_TAPCELL_ROW_18_113
*629 TAP_TAPCELL_ROW_18_114
*630 TAP_TAPCELL_ROW_18_115
*631 TAP_TAPCELL_ROW_19_116
*632 TAP_TAPCELL_ROW_19_117
*633 TAP_TAPCELL_ROW_19_118
*634 TAP_TAPCELL_ROW_1_53
*635 TAP_TAPCELL_ROW_1_54
*636 TAP_TAPCELL_ROW_1_55
*637 TAP_TAPCELL_ROW_20_119
*638 TAP_TAPCELL_ROW_20_120
*639 TAP_TAPCELL_ROW_20_121
*640 TAP_TAPCELL_ROW_20_122
*641 TAP_TAPCELL_ROW_21_123
*642 TAP_TAPCELL_ROW_21_124
*643 TAP_TAPCELL_ROW_21_125
*644 TAP_TAPCELL_ROW_22_126
*645 TAP_TAPCELL_ROW_22_127
*646 TAP_TAPCELL_ROW_22_128
*647 TAP_TAPCELL_ROW_22_129
*648 TAP_TAPCELL_ROW_22_130
*649 TAP_TAPCELL_ROW_22_131
*650 TAP_TAPCELL_ROW_22_132
*651 TAP_TAPCELL_ROW_2_56
*652 TAP_TAPCELL_ROW_2_57
*653 TAP_TAPCELL_ROW_2_58
*654 TAP_TAPCELL_ROW_2_59
*655 TAP_TAPCELL_ROW_3_60
*656 TAP_TAPCELL_ROW_3_61
*657 TAP_TAPCELL_ROW_3_62
*658 TAP_TAPCELL_ROW_4_63
*659 TAP_TAPCELL_ROW_4_64
*660 TAP_TAPCELL_ROW_4_65
*661 TAP_TAPCELL_ROW_4_66
*662 TAP_TAPCELL_ROW_5_67
*663 TAP_TAPCELL_ROW_5_68
*664 TAP_TAPCELL_ROW_5_69
*665 TAP_TAPCELL_ROW_6_70
*666 TAP_TAPCELL_ROW_6_71
*667 TAP_TAPCELL_ROW_6_72
*668 TAP_TAPCELL_ROW_6_73
*669 TAP_TAPCELL_ROW_7_74
*670 TAP_TAPCELL_ROW_7_75
*671 TAP_TAPCELL_ROW_7_76
*672 TAP_TAPCELL_ROW_8_77
*673 TAP_TAPCELL_ROW_8_78
*674 TAP_TAPCELL_ROW_8_79
*675 TAP_TAPCELL_ROW_8_80
*676 TAP_TAPCELL_ROW_9_81
*677 TAP_TAPCELL_ROW_9_82
*678 TAP_TAPCELL_ROW_9_83
*679 _116_
*680 _117_
*681 _118_
*682 _119_
*683 _120_
*684 _121_
*685 _122_
*686 _123_
*687 _124_
*688 _125_
*689 _126_
*690 _127_
*691 _128_
*692 _129_
*693 _130_
*694 _131_
*695 _132_
*696 _133_
*697 _134_
*698 _135_
*699 _136_
*700 _137_
*701 _138_
*702 _139_
*703 _140_
*704 _141_
*705 _142_
*706 _143_
*707 _144_
*708 _145_
*709 _146_
*710 _147_
*711 _148_
*712 _149_
*713 _150_
*714 _151_
*715 _152_
*716 _153_
*717 _154_
*718 _155_
*719 _156_
*720 _157_
*721 _158_
*722 _159_
*723 _160_
*724 _161_
*725 _162_
*726 _163_
*727 _164_
*728 _165_
*729 _166_
*730 _167_
*731 _168_
*732 _169_
*733 _170_
*734 _171_
*735 _172_
*736 _173_
*737 _174_
*738 _175_
*739 _176_
*740 _177_
*741 _178_
*742 _179_
*743 _180_
*744 _181_
*745 _182_
*746 _183_
*747 _184_
*748 _185_
*749 _186_
*750 _187_
*751 _188_
*752 _189_
*753 _190_
*754 _191_
*755 _192_
*756 _193_
*757 _194_
*758 _195_
*759 _196_
*760 _197_
*761 _198_
*762 _199_
*763 _200_
*764 _201_
*765 _202_
*766 _203_
*767 _204_
*768 _205_
*769 _206_
*770 _207_
*771 _208_
*772 _209_
*773 _210_
*774 _211_
*775 _212_
*776 _213_
*777 _214_
*778 _215_
*779 _216_
*780 _217_
*781 _218_
*782 _219_
*783 _220_
*784 _221_
*785 _222_
*786 _223_
*787 _224_
*788 _225_
*789 _226_
*790 _227_
*791 _228_
*792 _228__27
*793 _229_
*794 _229__26
*795 _230_
*796 _230__25
*797 _231_
*798 _231__24
*799 _232_
*800 _232__23
*801 _233_
*802 _233__22
*803 _234_
*804 _235_
*805 _236_
*806 _237_
*807 _238_
*808 _239_
*809 _240_
*810 _241_
*811 _242_
*812 _243_
*813 _243__21
*814 _244_
*815 _244__20
*816 _245_
*817 _245__19
*818 _246_
*819 _246__18
*820 _247_
*821 _248_
*822 _249_
*823 _250_
*824 _251_
*825 _252_
*826 _253_
*827 clkbuf_0_clk
*828 clkbuf_1_0__f_clk
*829 clkbuf_1_1__f_clk
*830 clkload0
*831 fanout12
*832 fanout13
*833 fanout14
*834 fanout15
*835 fanout16
*836 fanout17
*837 input1
*838 input10
*839 input11
*840 input2
*841 input3
*842 input4
*843 input5
*844 input6
*845 input7
*846 input8
*847 input9

*PORTS
address_in[0] I
address_in[1] I
address_in[2] I
clk I
data_in[0] I
data_in[1] I
data_in[2] I
data_in[3] I
data_in[4] I
ena I
rst_n I
signal_bit_out O
write_strobe_in I

*D_NET *3 0.000756243
*CONN
*P address_in[0] I
*I *837:I I *D gf180mcu_fd_sc_mcu7t5v0__clkbuf_1
*CAP
1 address_in[0] 0.000322758
2 *837:I 0.000322758
3 *837:I *839:I 5.53638e-05
4 *837:I *841:I 5.53638e-05
*RES
1 address_in[0] *837:I 7.36 
*END

*D_NET *4 0.000818298
*CONN
*P address_in[1] I
*I *840:I I *D gf180mcu_fd_sc_mcu7t5v0__clkbuf_1
*CAP
1 address_in[1] 0.000392042
2 *840:I 0.000392042
3 *840:I *839:I 3.42144e-05
4 *840:I *843:I 0
*RES
1 address_in[1] *840:I 7.672 
*END

*D_NET *5 0.000752125
*CONN
*P address_in[2] I
*I *841:I I *D gf180mcu_fd_sc_mcu7t5v0__clkbuf_1
*CAP
1 address_in[2] 0.000348381
2 *841:I 0.000348381
3 *837:I *841:I 5.53638e-05
*RES
1 address_in[2] *841:I 7.36 
*END

*D_NET *6 0.0039968
*CONN
*P clk I
*I *827:I I *D gf180mcu_fd_sc_mcu7t5v0__clkbuf_16
*CAP
1 clk 0.00180443
2 *827:I 0.00180443
3 *827:I *793:D 4.22773e-05
4 *827:I *793:CLK 0.000160319
5 *827:I *801:D 0.000109282
6 *827:I *137:18 0
7 *827:I *137:43 7.60693e-05
*RES
1 clk *827:I 22.052 
*END

*D_NET *7 0.000554809
*CONN
*P data_in[0] I
*I *842:I I *D gf180mcu_fd_sc_mcu7t5v0__clkbuf_1
*CAP
1 data_in[0] 0.000274312
2 *842:I 0.000274312
3 *842:I *761:A1 6.18411e-06
*RES
1 data_in[0] *842:I 6.528 
*END

*D_NET *8 0.000748007
*CONN
*P data_in[1] I
*I *843:I I *D gf180mcu_fd_sc_mcu7t5v0__clkbuf_1
*CAP
1 data_in[1] 0.000374004
2 *843:I 0.000374004
3 *840:I *843:I 0
*RES
1 data_in[1] *843:I 7.36 
*END

*D_NET *9 0.000554056
*CONN
*P data_in[2] I
*I *844:I I *D gf180mcu_fd_sc_mcu7t5v0__clkbuf_1
*CAP
1 data_in[2] 0.000277028
2 *844:I 0.000277028
*RES
1 data_in[2] *844:I 6.528 
*END

*D_NET *10 0.00073939
*CONN
*P data_in[3] I
*I *845:I I *D gf180mcu_fd_sc_mcu7t5v0__clkbuf_1
*CAP
1 data_in[3] 0.000265826
2 *845:I 0.000265826
3 *845:I signal_bit_out 3.79879e-05
4 *845:I *767:A1 3.89916e-05
5 *845:I *779:I 5.47431e-06
6 *845:I *170:8 0.000125283
*RES
1 data_in[3] *845:I 11.236 
*END

*D_NET *11 0.00140279
*CONN
*P data_in[4] I
*I *846:I I *D gf180mcu_fd_sc_mcu7t5v0__clkbuf_1
*CAP
1 data_in[4] 0.000325027
2 *846:I 0.000325027
3 *846:I *767:A1 0.000438819
4 *846:I *769:A1 6.8199e-07
5 *846:I *146:14 0.000287634
6 *846:I *169:8 2.56045e-05
*RES
1 data_in[4] *846:I 12.484 
*END

*D_NET *12 0.000738871
*CONN
*P ena I
*I *847:I I *D gf180mcu_fd_sc_mcu7t5v0__clkbuf_1
*CAP
1 ena 0.000369435
2 *847:I 0.000369435
*RES
1 ena *847:I 11.652 
*END

*D_NET *13 0.000751839
*CONN
*P rst_n I
*I *838:I I *D gf180mcu_fd_sc_mcu7t5v0__clkbuf_1
*CAP
1 rst_n 0.00037592
2 *838:I 0.00037592
*RES
1 rst_n *838:I 11.652 
*END

*D_NET *14 0.00810363
*CONN
*P signal_bit_out O
*I *715:A1 I *D gf180mcu_fd_sc_mcu7t5v0__aoi21_1
*I *714:A1 I *D gf180mcu_fd_sc_mcu7t5v0__oai31_1
*I *803:Q O *D gf180mcu_fd_sc_mcu7t5v0__dffrnq_4
*CAP
1 signal_bit_out 0.000387342
2 *715:A1 4.68385e-05
3 *714:A1 0.000116229
4 *803:Q 0
5 *14:20 0.00164104
6 *14:4 0.00186532
7 signal_bit_out *779:I 0.000265501
8 signal_bit_out *170:8 0
9 *714:A1 *715:B 0.000152316
10 *714:A1 *736:A1 0.000113016
11 *714:A1 *806:CLK 0.000122244
12 *714:A1 *90:34 1.92034e-05
13 *714:A1 *142:39 8.53312e-05
14 *715:A1 *736:A1 5.12872e-06
15 *715:A1 *65:8 5.12872e-06
16 *14:20 *690:I 0.000650616
17 *14:20 *754:A1 3.74622e-05
18 *14:20 *779:I 0.00108846
19 *14:20 *803:D 0.000393122
20 *14:20 *809:D 0.000665871
21 *14:20 *809:RN 4.1592e-05
22 *14:20 *810:CLK 0
23 *14:20 *90:34 3.20057e-06
24 *14:20 *98:14 5.23324e-05
25 *14:20 *142:39 0.000190655
26 *14:20 *145:126 0.000117692
27 *845:I signal_bit_out 3.79879e-05
*RES
1 *803:Q *14:4 4.5 
2 *14:4 signal_bit_out 7.776 
3 *14:4 *14:20 21.764 
4 *14:20 *714:A1 10.872 
5 *14:20 *715:A1 9.312 
*END

*D_NET *15 0.000884977
*CONN
*P write_strobe_in I
*I *839:I I *D gf180mcu_fd_sc_mcu7t5v0__clkbuf_1
*CAP
1 write_strobe_in 0.000397699
2 *839:I 0.000397699
3 *837:I *839:I 5.53638e-05
4 *840:I *839:I 3.42144e-05
*RES
1 write_strobe_in *839:I 16.776 
*END

*D_NET *16 0.000433151
*CONN
*I *785:D I *D gf180mcu_fd_sc_mcu7t5v0__dffrnq_1
*I *723:ZN O *D gf180mcu_fd_sc_mcu7t5v0__nor2_1
*CAP
1 *785:D 0.000210596
2 *723:ZN 0.000210596
3 *785:D *785:CLK 1.19584e-05
*RES
1 *723:ZN *785:D 10.144 
*END

*D_NET *17 0.000752069
*CONN
*I *786:D I *D gf180mcu_fd_sc_mcu7t5v0__dffrnq_1
*I *725:ZN O *D gf180mcu_fd_sc_mcu7t5v0__nor2_1
*CAP
1 *786:D 0.000269844
2 *725:ZN 0.000269844
3 *786:D *725:A1 1.823e-05
4 *786:D *786:CLK 9.96173e-06
5 *786:D *136:32 0.000184188
*RES
1 *725:ZN *786:D 20.08 
*END

*D_NET *18 0.000938109
*CONN
*I *787:D I *D gf180mcu_fd_sc_mcu7t5v0__dffrnq_1
*I *728:ZN O *D gf180mcu_fd_sc_mcu7t5v0__nor3_1
*CAP
1 *787:D 0.000354649
2 *728:ZN 0.000354649
3 *787:D *728:A2 0
4 *787:D *728:A3 0.000167561
5 *787:D *82:23 5.39728e-06
6 *787:D *136:20 1.78817e-06
7 *787:D *136:26 5.40637e-05
*RES
1 *728:ZN *787:D 20.912 
*END

*D_NET *19 0.00142272
*CONN
*I *788:D I *D gf180mcu_fd_sc_mcu7t5v0__dffrnq_1
*I *731:ZN O *D gf180mcu_fd_sc_mcu7t5v0__nor3_1
*CAP
1 *788:D 0.000227891
2 *731:ZN 0.000227891
3 *788:D *787:RN 0
4 *788:D *82:8 0.000966936
*RES
1 *731:ZN *788:D 11.6 
*END

*D_NET *20 0.000997334
*CONN
*I *789:D I *D gf180mcu_fd_sc_mcu7t5v0__dffrnq_1
*I *733:ZN O *D gf180mcu_fd_sc_mcu7t5v0__nor2_1
*CAP
1 *789:D 0.000398273
2 *733:ZN 0.000398273
3 *789:D *735:A1 9.2057e-05
4 *789:D *790:CLK 0.00010873
5 *789:D *82:38 0
*RES
1 *733:ZN *789:D 12.536 
*END

*D_NET *21 0.000353004
*CONN
*I *790:D I *D gf180mcu_fd_sc_mcu7t5v0__dffrnq_1
*I *735:ZN O *D gf180mcu_fd_sc_mcu7t5v0__nor2_1
*CAP
1 *790:D 0.000149214
2 *735:ZN 0.000149214
3 *790:D *790:CLK 5.45754e-05
*RES
1 *735:ZN *790:D 10.144 
*END

*D_NET *22 0.000728594
*CONN
*I *804:D I *D gf180mcu_fd_sc_mcu7t5v0__dffrnq_1
*I *737:ZN O *D gf180mcu_fd_sc_mcu7t5v0__nor2_1
*CAP
1 *804:D 0.000312331
2 *737:ZN 0.000312331
3 *804:D *90:16 0.000103933
4 *804:D *128:14 0
*RES
1 *737:ZN *804:D 11.496 
*END

*D_NET *23 0.00082219
*CONN
*I *805:D I *D gf180mcu_fd_sc_mcu7t5v0__dffrnq_1
*I *739:ZN O *D gf180mcu_fd_sc_mcu7t5v0__nor2_1
*CAP
1 *805:D 0.000380715
2 *739:ZN 0.000380715
3 *805:D *141:39 6.18411e-06
4 *805:D *141:46 5.45754e-05
*RES
1 *739:ZN *805:D 11.912 
*END

*D_NET *24 0.0015056
*CONN
*I *806:D I *D gf180mcu_fd_sc_mcu7t5v0__dffrnq_1
*I *742:ZN O *D gf180mcu_fd_sc_mcu7t5v0__nor3_1
*CAP
1 *806:D 0.000403265
2 *742:ZN 0.000403265
3 *806:D *699:C 7.60693e-05
4 *806:D *806:CLK 4.57837e-05
5 *806:D *115:12 1.99013e-05
6 *806:D *145:18 0
7 *806:D *174:48 0.000202022
8 *806:D *175:16 0.000355296
*RES
1 *742:ZN *806:D 22.368 
*END

*D_NET *25 0.000863643
*CONN
*I *807:D I *D gf180mcu_fd_sc_mcu7t5v0__dffrnq_1
*I *745:ZN O *D gf180mcu_fd_sc_mcu7t5v0__nor3_1
*CAP
1 *807:D 0.000180433
2 *745:ZN 0.000180433
3 *807:D *745:A1 1.12327e-05
4 *807:D *745:A2 0.000491544
*RES
1 *745:ZN *807:D 10.664 
*END

*D_NET *26 0.00123564
*CONN
*I *808:D I *D gf180mcu_fd_sc_mcu7t5v0__dffrnq_1
*I *748:ZN O *D gf180mcu_fd_sc_mcu7t5v0__nor3_1
*CAP
1 *808:D 0.000440691
2 *748:ZN 0.000440691
3 *808:D *807:CLK 1.07369e-05
4 *808:D *90:53 3.93698e-05
5 *808:D *90:55 0.000197139
6 *808:D *94:10 8.42801e-05
7 *808:D *142:62 2.27369e-05
*RES
1 *748:ZN *808:D 12.64 
*END

*D_NET *27 0.00184821
*CONN
*I *809:D I *D gf180mcu_fd_sc_mcu7t5v0__dffrnq_1
*I *751:ZN O *D gf180mcu_fd_sc_mcu7t5v0__nor3_1
*CAP
1 *809:D 7.31296e-05
2 *751:ZN 7.31296e-05
3 *809:D *751:A1 2.24654e-05
4 *809:D *751:A3 0.000182208
5 *809:D *98:14 0.000790655
6 *809:D *98:21 4.07478e-05
7 *14:20 *809:D 0.000665871
*RES
1 *751:ZN *809:D 20.288 
*END

*D_NET *28 0.000687993
*CONN
*I *810:D I *D gf180mcu_fd_sc_mcu7t5v0__dffrnq_1
*I *754:ZN O *D gf180mcu_fd_sc_mcu7t5v0__nor2_1
*CAP
1 *810:D 0.00021504
2 *754:ZN 0.00021504
3 *810:D *754:A1 0.000203739
4 *810:D *754:A2 2.61985e-05
5 *810:D *810:CLK 2.79753e-05
*RES
1 *754:ZN *810:D 10.768 
*END

*D_NET *29 0.00112785
*CONN
*I *811:D I *D gf180mcu_fd_sc_mcu7t5v0__dffrnq_1
*I *756:ZN O *D gf180mcu_fd_sc_mcu7t5v0__nor2_1
*CAP
1 *811:D 0.000348496
2 *756:ZN 0.000348496
3 *811:D *710:A2 0.000410048
4 *811:D *756:A1 2.08074e-05
*RES
1 *756:ZN *811:D 11.704 
*END

*D_NET *30 0.0003338
*CONN
*I *803:RN I *D gf180mcu_fd_sc_mcu7t5v0__dffrnq_4
*I *690:ZN O *D gf180mcu_fd_sc_mcu7t5v0__clkinv_1
*CAP
1 *803:RN 0.000137399
2 *690:ZN 0.000137399
3 *803:RN *779:I 5.90026e-05
*RES
1 *690:ZN *803:RN 10.04 
*END

*D_NET *31 0.000861511
*CONN
*I *804:RN I *D gf180mcu_fd_sc_mcu7t5v0__dffrnq_1
*I *773:ZN O *D gf180mcu_fd_sc_mcu7t5v0__clkinv_1
*CAP
1 *804:RN 0.000132007
2 *773:ZN 0.000132007
3 *804:RN *141:23 8.75081e-05
4 *804:RN *144:101 0.000509988
*RES
1 *773:ZN *804:RN 10.872 
*END

*D_NET *32 0.000443543
*CONN
*I *805:RN I *D gf180mcu_fd_sc_mcu7t5v0__dffrnq_1
*I *774:ZN O *D gf180mcu_fd_sc_mcu7t5v0__clkinv_1
*CAP
1 *805:RN 7.63368e-05
2 *774:ZN 7.63368e-05
3 *805:RN *141:31 0.000256274
4 *805:RN *144:27 3.4596e-05
*RES
1 *774:ZN *805:RN 9.728 
*END

*D_NET *33 0.000822455
*CONN
*I *806:RN I *D gf180mcu_fd_sc_mcu7t5v0__dffrnq_1
*I *775:ZN O *D gf180mcu_fd_sc_mcu7t5v0__clkinv_1
*CAP
1 *806:RN 3.18625e-05
2 *775:ZN 3.18625e-05
3 *806:RN *145:18 0.000626417
4 *806:RN *146:28 0.000132312
*RES
1 *775:ZN *806:RN 19.56 
*END

*D_NET *34 0.00088848
*CONN
*I *807:RN I *D gf180mcu_fd_sc_mcu7t5v0__dffrnq_1
*I *776:ZN O *D gf180mcu_fd_sc_mcu7t5v0__clkinv_1
*CAP
1 *807:RN 0.000230123
2 *776:ZN 0.000230123
3 *807:RN *145:16 1.50424e-05
4 *807:RN *145:109 0.000413192
*RES
1 *776:ZN *807:RN 11.08 
*END

*D_NET *35 0.00049708
*CONN
*I *808:RN I *D gf180mcu_fd_sc_mcu7t5v0__dffrnq_1
*I *777:ZN O *D gf180mcu_fd_sc_mcu7t5v0__clkinv_1
*CAP
1 *808:RN 0.000200015
2 *777:ZN 0.000200015
3 *808:RN *176:10 9.70493e-05
4 *808:RN *177:16 0
*RES
1 *777:ZN *808:RN 19.56 
*END

*D_NET *36 0.000850649
*CONN
*I *809:RN I *D gf180mcu_fd_sc_mcu7t5v0__dffrnq_1
*I *778:ZN O *D gf180mcu_fd_sc_mcu7t5v0__clkinv_1
*CAP
1 *809:RN 0.000231799
2 *778:ZN 0.000231799
3 *809:RN *803:D 9.67853e-05
4 *809:RN *145:126 0.000248675
5 *14:20 *809:RN 4.1592e-05
*RES
1 *778:ZN *809:RN 19.56 
*END

*D_NET *37 0.00028521
*CONN
*I *810:RN I *D gf180mcu_fd_sc_mcu7t5v0__dffrnq_1
*I *779:ZN O *D gf180mcu_fd_sc_mcu7t5v0__clkinv_1
*CAP
1 *810:RN 0.000142605
2 *779:ZN 0.000142605
*RES
1 *779:ZN *810:RN 9.728 
*END

*D_NET *38 0.000354713
*CONN
*I *811:RN I *D gf180mcu_fd_sc_mcu7t5v0__dffrnq_1
*I *780:ZN O *D gf180mcu_fd_sc_mcu7t5v0__clkinv_1
*CAP
1 *811:RN 0.00010694
2 *780:ZN 0.00010694
3 *811:RN *714:A3 4.02644e-05
4 *811:RN *165:23 0.000100568
*RES
1 *780:ZN *811:RN 10.04 
*END

*D_NET *39 0.00081185
*CONN
*I *812:RN I *D gf180mcu_fd_sc_mcu7t5v0__dffrnq_1
*I *781:ZN O *D gf180mcu_fd_sc_mcu7t5v0__clkinv_1
*CAP
1 *812:RN 0.00024137
2 *781:ZN 0.00024137
3 *812:RN *145:60 0.000329109
*RES
1 *781:ZN *812:RN 11.08 
*END

*D_NET *40 0.000423509
*CONN
*I *814:RN I *D gf180mcu_fd_sc_mcu7t5v0__dffrnq_1
*I *782:ZN O *D gf180mcu_fd_sc_mcu7t5v0__clkinv_1
*CAP
1 *814:RN 8.42832e-05
2 *782:ZN 8.42832e-05
3 *814:RN *145:60 0.000254943
*RES
1 *782:ZN *814:RN 9.728 
*END

*D_NET *41 0.000754832
*CONN
*I *816:RN I *D gf180mcu_fd_sc_mcu7t5v0__dffrnq_1
*I *783:ZN O *D gf180mcu_fd_sc_mcu7t5v0__clkinv_1
*CAP
1 *816:RN 5.92225e-05
2 *783:ZN 5.92225e-05
3 *816:RN *784:I 0.000509988
4 *816:RN *141:23 0.000126399
*RES
1 *783:ZN *816:RN 10.352 
*END

*D_NET *42 0.000306019
*CONN
*I *818:RN I *D gf180mcu_fd_sc_mcu7t5v0__dffrnq_1
*I *784:ZN O *D gf180mcu_fd_sc_mcu7t5v0__clkinv_1
*CAP
1 *818:RN 5.24411e-05
2 *784:ZN 5.24411e-05
3 *818:RN *784:I 0.000100568
4 *818:RN *820:CLK 0.000100568
*RES
1 *784:ZN *818:RN 9.728 
*END

*D_NET *43 0.0054028
*CONN
*I *803:D I *D gf180mcu_fd_sc_mcu7t5v0__dffrnq_4
*I *715:ZN O *D gf180mcu_fd_sc_mcu7t5v0__aoi21_1
*CAP
1 *803:D 0.000685305
2 *715:ZN 0.000685305
3 *803:D *715:A2 0.000106926
4 *803:D *736:A1 0
5 *803:D *754:A1 0.000656904
6 *803:D *90:34 0.000277579
7 *803:D *90:47 9.76261e-05
8 *803:D *98:14 0.000120198
9 *803:D *142:62 0.000331109
10 *803:D *142:86 0.00189227
11 *803:D *142:96 6.18411e-06
12 *803:D *145:126 5.34857e-05
13 *809:RN *803:D 9.67853e-05
14 *14:20 *803:D 0.000393122
*RES
1 *715:ZN *803:D 28.296 
*END

*D_NET *44 0.000595984
*CONN
*I *820:D I *D gf180mcu_fd_sc_mcu7t5v0__dffq_1
*I *759:Z O *D gf180mcu_fd_sc_mcu7t5v0__mux2_2
*CAP
1 *820:D 0.000297992
2 *759:Z 0.000297992
3 *820:D *759:I0 0
4 *820:D *759:S 0
5 *820:D *764:B 0
*RES
1 *759:Z *820:D 20.08 
*END

*D_NET *45 0.00141173
*CONN
*I *821:D I *D gf180mcu_fd_sc_mcu7t5v0__dffrnq_1
*I *762:ZN O *D gf180mcu_fd_sc_mcu7t5v0__oai21_1
*CAP
1 *821:D 0.000268387
2 *762:ZN 0.000268387
3 *821:D *761:A1 0
4 *821:D *762:A1 0.000419265
5 *821:D *762:A2 0
6 *821:D *762:B 5.13239e-06
7 *821:D *821:CLK 0
8 *821:D *141:33 0.000450555
*RES
1 *762:ZN *821:D 20.912 
*END

*D_NET *46 0.00153839
*CONN
*I *822:D I *D gf180mcu_fd_sc_mcu7t5v0__dffrnq_1
*I *764:ZN O *D gf180mcu_fd_sc_mcu7t5v0__oai21_1
*CAP
1 *822:D 0.000373715
2 *764:ZN 0.000373715
3 *822:D *90:16 0.00013981
4 *822:D *105:18 5.77498e-05
5 *822:D *141:23 0.000157034
6 *822:D *141:31 7.87395e-06
7 *822:D *171:8 0.000428493
*RES
1 *764:ZN *822:D 21.952 
*END

*D_NET *47 0.000732919
*CONN
*I *823:D I *D gf180mcu_fd_sc_mcu7t5v0__dffrnq_1
*I *766:ZN O *D gf180mcu_fd_sc_mcu7t5v0__oai21_1
*CAP
1 *823:D 0.000314493
2 *766:ZN 0.000314493
3 *823:D *833:I 0.000103933
*RES
1 *766:ZN *823:D 11.704 
*END

*D_NET *48 0.00200343
*CONN
*I *824:D I *D gf180mcu_fd_sc_mcu7t5v0__dffsnq_2
*I *768:ZN O *D gf180mcu_fd_sc_mcu7t5v0__oai21_1
*CAP
1 *824:D 0.000310299
2 *768:ZN 0.000310299
3 *824:D *682:I 0
4 *824:D *768:A1 0.000800728
5 *824:D *824:CLK 7.5959e-06
6 *824:D *115:8 0
7 *824:D *145:109 0.000488479
8 *824:D *169:8 8.60272e-05
*RES
1 *768:ZN *824:D 21.536 
*END

*D_NET *49 0.000946691
*CONN
*I *825:D I *D gf180mcu_fd_sc_mcu7t5v0__dffrnq_1
*I *770:ZN O *D gf180mcu_fd_sc_mcu7t5v0__oai21_1
*CAP
1 *825:D 0.000404789
2 *770:ZN 0.000404789
3 *825:D *680:I 1.40331e-05
4 *825:D *770:A2 8.10026e-05
5 *825:D *145:126 4.02892e-05
6 *825:D *178:12 1.78817e-06
*RES
1 *770:ZN *825:D 12.016 
*END

*D_NET *50 0.00104632
*CONN
*I *826:D I *D gf180mcu_fd_sc_mcu7t5v0__dffrnq_1
*I *772:ZN O *D gf180mcu_fd_sc_mcu7t5v0__aoi21_1
*CAP
1 *826:D 0.000492987
2 *772:ZN 0.000492987
3 *826:D *719:A1 0
4 *826:D *771:B 0
5 *826:D *816:CLK 5.45754e-05
6 *826:D *818:CLK 5.77431e-06
*RES
1 *772:ZN *826:D 21.952 
*END

*D_NET *51 0.00106748
*CONN
*I *758:A1 I *D gf180mcu_fd_sc_mcu7t5v0__nor3_1
*I *760:A1 I *D gf180mcu_fd_sc_mcu7t5v0__nor4_4
*I *689:ZN O *D gf180mcu_fd_sc_mcu7t5v0__inv_1
*CAP
1 *758:A1 0.000270281
2 *760:A1 0
3 *689:ZN 0.00017215
4 *51:6 0.000442431
5 *758:A1 *757:A3 2.38865e-05
6 *758:A1 *758:A2 0
7 *758:A1 *758:A3 7.87395e-06
8 *51:6 *757:A2 2.39156e-06
9 *51:6 *757:A3 1.12327e-05
10 *51:6 *758:A2 0
11 *51:6 *138:10 0.000137229
12 *51:6 *149:6 0
*RES
1 *689:ZN *51:6 5.852 