* NGSPICE file created from tt_um_felixfeierabend.ext - technology: gf180mcuD

* Black-box entry subcircuit for gf180mcu_fd_sc_mcu7t5v0__fill_2 abstract view
.subckt gf180mcu_fd_sc_mcu7t5v0__fill_2 VDD VNW VPW VSS
.ends

* Black-box entry subcircuit for gf180mcu_fd_sc_mcu7t5v0__fillcap_4 abstract view
.subckt gf180mcu_fd_sc_mcu7t5v0__fillcap_4 VDD VNW VPW VSS
.ends

* Black-box entry subcircuit for gf180mcu_fd_sc_mcu7t5v0__fill_1 abstract view
.subckt gf180mcu_fd_sc_mcu7t5v0__fill_1 VDD VNW VPW VSS
.ends

* Black-box entry subcircuit for gf180mcu_fd_sc_mcu7t5v0__tiel abstract view
.subckt gf180mcu_fd_sc_mcu7t5v0__tiel ZN VDD VNW VPW VSS
.ends

* Black-box entry subcircuit for gf180mcu_fd_sc_mcu7t5v0__fillcap_16 abstract view
.subckt gf180mcu_fd_sc_mcu7t5v0__fillcap_16 VDD VNW VPW VSS
.ends

* Black-box entry subcircuit for gf180mcu_fd_sc_mcu7t5v0__filltie abstract view
.subckt gf180mcu_fd_sc_mcu7t5v0__filltie VDD VSS
.ends

* Black-box entry subcircuit for gf180mcu_fd_sc_mcu7t5v0__endcap abstract view
.subckt gf180mcu_fd_sc_mcu7t5v0__endcap VDD VSS
.ends

* Black-box entry subcircuit for gf180mcu_fd_sc_mcu7t5v0__oai21_1 abstract view
.subckt gf180mcu_fd_sc_mcu7t5v0__oai21_1 A1 A2 B ZN VDD VNW VPW VSS
.ends

* Black-box entry subcircuit for gf180mcu_fd_sc_mcu7t5v0__oai22_1 abstract view
.subckt gf180mcu_fd_sc_mcu7t5v0__oai22_1 A1 A2 B1 B2 ZN VDD VNW VPW VSS
.ends

* Black-box entry subcircuit for gf180mcu_fd_sc_mcu7t5v0__clkinv_1 abstract view
.subckt gf180mcu_fd_sc_mcu7t5v0__clkinv_1 I ZN VDD VNW VPW VSS
.ends

* Black-box entry subcircuit for gf180mcu_fd_sc_mcu7t5v0__aoi22_1 abstract view
.subckt gf180mcu_fd_sc_mcu7t5v0__aoi22_1 A1 A2 B1 B2 ZN VDD VNW VPW VSS
.ends

* Black-box entry subcircuit for gf180mcu_fd_sc_mcu7t5v0__fillcap_32 abstract view
.subckt gf180mcu_fd_sc_mcu7t5v0__fillcap_32 VDD VNW VPW VSS
.ends

* Black-box entry subcircuit for gf180mcu_fd_sc_mcu7t5v0__fillcap_64 abstract view
.subckt gf180mcu_fd_sc_mcu7t5v0__fillcap_64 VDD VNW VPW VSS
.ends

* Black-box entry subcircuit for gf180mcu_fd_sc_mcu7t5v0__fillcap_8 abstract view
.subckt gf180mcu_fd_sc_mcu7t5v0__fillcap_8 VDD VNW VPW VSS
.ends

* Black-box entry subcircuit for gf180mcu_fd_sc_mcu7t5v0__nand2_1 abstract view
.subckt gf180mcu_fd_sc_mcu7t5v0__nand2_1 A1 A2 ZN VDD VNW VPW VSS
.ends

* Black-box entry subcircuit for gf180mcu_fd_sc_mcu7t5v0__nor2_1 abstract view
.subckt gf180mcu_fd_sc_mcu7t5v0__nor2_1 A1 A2 ZN VDD VNW VPW VSS
.ends

* Black-box entry subcircuit for gf180mcu_fd_sc_mcu7t5v0__xor2_1 abstract view
.subckt gf180mcu_fd_sc_mcu7t5v0__xor2_1 A1 A2 Z VDD VNW VPW VSS
.ends

* Black-box entry subcircuit for gf180mcu_fd_sc_mcu7t5v0__clkbuf_2 abstract view
.subckt gf180mcu_fd_sc_mcu7t5v0__clkbuf_2 I Z VDD VNW VPW VSS
.ends

* Black-box entry subcircuit for gf180mcu_fd_sc_mcu7t5v0__dffrnq_1 abstract view
.subckt gf180mcu_fd_sc_mcu7t5v0__dffrnq_1 D RN CLK Q VDD VNW VPW VSS
.ends

* Black-box entry subcircuit for gf180mcu_fd_sc_mcu7t5v0__xnor2_1 abstract view
.subckt gf180mcu_fd_sc_mcu7t5v0__xnor2_1 A1 A2 ZN VDD VNW VPW VSS
.ends

* Black-box entry subcircuit for gf180mcu_fd_sc_mcu7t5v0__nand3_4 abstract view
.subckt gf180mcu_fd_sc_mcu7t5v0__nand3_4 A1 A2 A3 ZN VDD VNW VPW VSS
.ends

* Black-box entry subcircuit for gf180mcu_fd_sc_mcu7t5v0__tieh abstract view
.subckt gf180mcu_fd_sc_mcu7t5v0__tieh Z VDD VNW VPW VSS
.ends

* Black-box entry subcircuit for gf180mcu_fd_sc_mcu7t5v0__clkbuf_16 abstract view
.subckt gf180mcu_fd_sc_mcu7t5v0__clkbuf_16 I Z VDD VNW VPW VSS
.ends

* Black-box entry subcircuit for gf180mcu_fd_sc_mcu7t5v0__nor3_1 abstract view
.subckt gf180mcu_fd_sc_mcu7t5v0__nor3_1 A1 A2 A3 ZN VDD VNW VPW VSS
.ends

* Black-box entry subcircuit for gf180mcu_fd_sc_mcu7t5v0__aoi21_1 abstract view
.subckt gf180mcu_fd_sc_mcu7t5v0__aoi21_1 A1 A2 B ZN VDD VNW VPW VSS
.ends

* Black-box entry subcircuit for gf180mcu_fd_sc_mcu7t5v0__and2_1 abstract view
.subckt gf180mcu_fd_sc_mcu7t5v0__and2_1 A1 A2 Z VDD VNW VPW VSS
.ends

* Black-box entry subcircuit for gf180mcu_fd_sc_mcu7t5v0__oai31_1 abstract view
.subckt gf180mcu_fd_sc_mcu7t5v0__oai31_1 A1 A2 A3 B ZN VDD VNW VPW VSS
.ends

* Black-box entry subcircuit for gf180mcu_fd_sc_mcu7t5v0__oai22_2 abstract view
.subckt gf180mcu_fd_sc_mcu7t5v0__oai22_2 A1 A2 B1 B2 ZN VDD VNW VPW VSS
.ends

* Black-box entry subcircuit for gf180mcu_fd_sc_mcu7t5v0__clkbuf_1 abstract view
.subckt gf180mcu_fd_sc_mcu7t5v0__clkbuf_1 I Z VDD VNW VPW VSS
.ends

* Black-box entry subcircuit for gf180mcu_fd_sc_mcu7t5v0__buf_2 abstract view
.subckt gf180mcu_fd_sc_mcu7t5v0__buf_2 I Z VDD VNW VPW VSS
.ends

* Black-box entry subcircuit for gf180mcu_fd_sc_mcu7t5v0__clkbuf_3 abstract view
.subckt gf180mcu_fd_sc_mcu7t5v0__clkbuf_3 I Z VDD VNW VPW VSS
.ends

* Black-box entry subcircuit for gf180mcu_fd_sc_mcu7t5v0__oai211_1 abstract view
.subckt gf180mcu_fd_sc_mcu7t5v0__oai211_1 A1 A2 B C ZN VDD VNW VPW VSS
.ends

* Black-box entry subcircuit for gf180mcu_fd_sc_mcu7t5v0__clkbuf_4 abstract view
.subckt gf180mcu_fd_sc_mcu7t5v0__clkbuf_4 I Z VDD VNW VPW VSS
.ends

* Black-box entry subcircuit for gf180mcu_fd_sc_mcu7t5v0__nor4_2 abstract view
.subckt gf180mcu_fd_sc_mcu7t5v0__nor4_2 A1 A2 A3 A4 ZN VDD VNW VPW VSS
.ends

* Black-box entry subcircuit for gf180mcu_fd_sc_mcu7t5v0__clkinv_2 abstract view
.subckt gf180mcu_fd_sc_mcu7t5v0__clkinv_2 I ZN VDD VNW VPW VSS
.ends

* Black-box entry subcircuit for gf180mcu_fd_sc_mcu7t5v0__inv_1 abstract view
.subckt gf180mcu_fd_sc_mcu7t5v0__inv_1 I ZN VDD VNW VPW VSS
.ends

* Black-box entry subcircuit for gf180mcu_fd_sc_mcu7t5v0__dffsnq_1 abstract view
.subckt gf180mcu_fd_sc_mcu7t5v0__dffsnq_1 D SETN CLK Q VDD VNW VPW VSS
.ends

* Black-box entry subcircuit for gf180mcu_fd_sc_mcu7t5v0__and3_1 abstract view
.subckt gf180mcu_fd_sc_mcu7t5v0__and3_1 A1 A2 A3 Z VDD VNW VPW VSS
.ends

* Black-box entry subcircuit for gf180mcu_fd_sc_mcu7t5v0__nor4_4 abstract view
.subckt gf180mcu_fd_sc_mcu7t5v0__nor4_4 A1 A2 A3 A4 ZN VDD VNW VPW VSS
.ends

* Black-box entry subcircuit for gf180mcu_fd_sc_mcu7t5v0__and4_1 abstract view
.subckt gf180mcu_fd_sc_mcu7t5v0__and4_1 A1 A2 A3 A4 Z VDD VNW VPW VSS
.ends

* Black-box entry subcircuit for gf180mcu_fd_sc_mcu7t5v0__mux2_2 abstract view
.subckt gf180mcu_fd_sc_mcu7t5v0__mux2_2 I0 I1 S Z VDD VNW VPW VSS
.ends

* Black-box entry subcircuit for gf180mcu_fd_sc_mcu7t5v0__oai21_2 abstract view
.subckt gf180mcu_fd_sc_mcu7t5v0__oai21_2 A1 A2 B ZN VDD VNW VPW VSS
.ends

* Black-box entry subcircuit for gf180mcu_fd_sc_mcu7t5v0__dffq_1 abstract view
.subckt gf180mcu_fd_sc_mcu7t5v0__dffq_1 D CLK Q VDD VNW VPW VSS
.ends

* Black-box entry subcircuit for gf180mcu_fd_sc_mcu7t5v0__aoi221_1 abstract view
.subckt gf180mcu_fd_sc_mcu7t5v0__aoi221_1 A1 A2 B1 B2 C ZN VDD VNW VPW VSS
.ends

* Black-box entry subcircuit for gf180mcu_fd_sc_mcu7t5v0__nand2_2 abstract view
.subckt gf180mcu_fd_sc_mcu7t5v0__nand2_2 A1 A2 ZN VDD VNW VPW VSS
.ends

* Black-box entry subcircuit for gf180mcu_fd_sc_mcu7t5v0__oai211_2 abstract view
.subckt gf180mcu_fd_sc_mcu7t5v0__oai211_2 A1 A2 B C ZN VDD VNW VPW VSS
.ends

* Black-box entry subcircuit for gf180mcu_fd_sc_mcu7t5v0__aoi211_2 abstract view
.subckt gf180mcu_fd_sc_mcu7t5v0__aoi211_2 A1 A2 B C ZN VDD VNW VPW VSS
.ends

.subckt tt_um_felixfeierabend VDD VSS clk ena rst_n ui_in[0] ui_in[1] ui_in[2] ui_in[3]
+ ui_in[4] ui_in[5] ui_in[6] ui_in[7] uio_in[0] uio_in[1] uio_in[2] uio_in[3] uio_in[4]
+ uio_in[5] uio_in[6] uio_in[7] uio_oe[0] uio_oe[1] uio_oe[2] uio_oe[3] uio_oe[4]
+ uio_oe[5] uio_oe[6] uio_oe[7] uio_out[0] uio_out[1] uio_out[2] uio_out[3] uio_out[4]
+ uio_out[5] uio_out[6] uio_out[7] uo_out[0] uo_out[1] uo_out[2] uo_out[3] uo_out[4]
+ uo_out[5] uo_out[6] uo_out[7]
XFILLER_22_155 VDD VDD VSS VSS gf180mcu_fd_sc_mcu7t5v0__fill_2
XFILLER_13_166 VDD VDD VSS VSS gf180mcu_fd_sc_mcu7t5v0__fill_2
XFILLER_9_148 VDD VDD VSS VSS gf180mcu_fd_sc_mcu7t5v0__fillcap_4
XFILLER_9_104 VDD VDD VSS VSS gf180mcu_fd_sc_mcu7t5v0__fill_1
X_237__40 _237_/D VDD VDD VSS VSS gf180mcu_fd_sc_mcu7t5v0__tiel
XFILLER_8_192 VDD VDD VSS VSS gf180mcu_fd_sc_mcu7t5v0__fillcap_4
XFILLER_10_147 VDD VDD VSS VSS gf180mcu_fd_sc_mcu7t5v0__fill_1
XFILLER_10_158 VDD VDD VSS VSS gf180mcu_fd_sc_mcu7t5v0__fillcap_16
XFILLER_12_32 VDD VDD VSS VSS gf180mcu_fd_sc_mcu7t5v0__fill_2
XFILLER_18_247 VDD VDD VSS VSS gf180mcu_fd_sc_mcu7t5v0__fillcap_16
XTAP_TAPCELL_ROW_8_77 VDD VSS gf180mcu_fd_sc_mcu7t5v0__filltie
XTAP_TAPCELL_ROW_20_120 VDD VSS gf180mcu_fd_sc_mcu7t5v0__filltie
XPHY_EDGE_ROW_0_Left_23 VDD VSS gf180mcu_fd_sc_mcu7t5v0__endcap
X_225__43 _225_/D VDD VDD VSS VSS gf180mcu_fd_sc_mcu7t5v0__tiel
X_200_ _200_/A1 _201_/S _200_/B _245_/D VDD VDD VSS VSS gf180mcu_fd_sc_mcu7t5v0__oai21_1
X_131_ _232_/Q _200_/A1 _231_/Q _198_/A1 _132_/C VDD VDD VSS VSS gf180mcu_fd_sc_mcu7t5v0__oai22_1
XFILLER_2_121 VDD VDD VSS VSS gf180mcu_fd_sc_mcu7t5v0__fill_1
XFILLER_9_88 VDD VDD VSS VSS gf180mcu_fd_sc_mcu7t5v0__fillcap_16
X_222__46 _222_/D VDD VDD VSS VSS gf180mcu_fd_sc_mcu7t5v0__tiel
XFILLER_11_253 VDD VDD VSS VSS gf180mcu_fd_sc_mcu7t5v0__fillcap_16
X_114_ _232_/Q _134_/A1 VDD VDD VSS VSS gf180mcu_fd_sc_mcu7t5v0__clkinv_1
XTAP_TAPCELL_ROW_5_67 VDD VSS gf180mcu_fd_sc_mcu7t5v0__filltie
XFILLER_3_260 VDD VDD VSS VSS gf180mcu_fd_sc_mcu7t5v0__fillcap_4
XFILLER_6_34 VDD VDD VSS VSS gf180mcu_fd_sc_mcu7t5v0__fill_1
XFILLER_15_76 VDD VDD VSS VSS gf180mcu_fd_sc_mcu7t5v0__fill_1
XTAP_TAPCELL_ROW_2_57 VDD VSS gf180mcu_fd_sc_mcu7t5v0__filltie
XTAP_TAPCELL_ROW_18_115 VDD VSS gf180mcu_fd_sc_mcu7t5v0__filltie
XFILLER_22_101 VDD VDD VSS VSS gf180mcu_fd_sc_mcu7t5v0__fill_1
XFILLER_22_112 VDD VDD VSS VSS gf180mcu_fd_sc_mcu7t5v0__fill_2
XFILLER_22_167 VDD VDD VSS VSS gf180mcu_fd_sc_mcu7t5v0__fill_2
XFILLER_10_104 VDD VDD VSS VSS gf180mcu_fd_sc_mcu7t5v0__fill_1
XFILLER_10_115 VDD VDD VSS VSS gf180mcu_fd_sc_mcu7t5v0__fill_1
XFILLER_12_99 VDD VDD VSS VSS gf180mcu_fd_sc_mcu7t5v0__fillcap_4
XTAP_TAPCELL_ROW_8_78 VDD VSS gf180mcu_fd_sc_mcu7t5v0__filltie
XTAP_TAPCELL_ROW_20_121 VDD VSS gf180mcu_fd_sc_mcu7t5v0__filltie
XFILLER_17_270 VDD VDD VSS VSS gf180mcu_fd_sc_mcu7t5v0__fill_1
XFILLER_15_207 VDD VDD VSS VSS gf180mcu_fd_sc_mcu7t5v0__fill_2
X_130_ _134_/A1 _245_/Q _172_/A1 _244_/Q _133_/C VDD VDD VSS VSS gf180mcu_fd_sc_mcu7t5v0__aoi22_1
XPHY_EDGE_ROW_21_Right_21 VDD VSS gf180mcu_fd_sc_mcu7t5v0__endcap
XPHY_EDGE_ROW_12_Right_12 VDD VSS gf180mcu_fd_sc_mcu7t5v0__endcap
XFILLER_0_36 VDD VDD VSS VSS gf180mcu_fd_sc_mcu7t5v0__fillcap_32
XFILLER_2_177 VDD VDD VSS VSS gf180mcu_fd_sc_mcu7t5v0__fillcap_64
XFILLER_3_2 VDD VDD VSS VSS gf180mcu_fd_sc_mcu7t5v0__fillcap_64
XFILLER_9_67 VDD VDD VSS VSS gf180mcu_fd_sc_mcu7t5v0__fill_2
X_113_ _233_/Q _141_/A1 VDD VDD VSS VSS gf180mcu_fd_sc_mcu7t5v0__clkinv_1
XTAP_TAPCELL_ROW_5_68 VDD VSS gf180mcu_fd_sc_mcu7t5v0__filltie
XFILLER_7_203 VDD VDD VSS VSS gf180mcu_fd_sc_mcu7t5v0__fill_1
XFILLER_6_68 VDD VDD VSS VSS gf180mcu_fd_sc_mcu7t5v0__fillcap_4
XFILLER_6_57 VDD VDD VSS VSS gf180mcu_fd_sc_mcu7t5v0__fill_2
XPHY_EDGE_ROW_6_Right_6 VDD VSS gf180mcu_fd_sc_mcu7t5v0__endcap
XFILLER_0_264 VDD VDD VSS VSS gf180mcu_fd_sc_mcu7t5v0__fillcap_4
Xtt_um_felixfeierabend_30 uo_out[1] VDD VDD VSS VSS gf180mcu_fd_sc_mcu7t5v0__tiel
XTAP_TAPCELL_ROW_2_58 VDD VSS gf180mcu_fd_sc_mcu7t5v0__filltie
XFILLER_13_146 VDD VDD VSS VSS gf180mcu_fd_sc_mcu7t5v0__fillcap_16
XFILLER_13_168 VDD VDD VSS VSS gf180mcu_fd_sc_mcu7t5v0__fill_1
XFILLER_9_139 VDD VDD VSS VSS gf180mcu_fd_sc_mcu7t5v0__fill_1
XFILLER_12_34 VDD VDD VSS VSS gf180mcu_fd_sc_mcu7t5v0__fill_1
XTAP_TAPCELL_ROW_20_122 VDD VSS gf180mcu_fd_sc_mcu7t5v0__filltie
XFILLER_5_142 VDD VDD VSS VSS gf180mcu_fd_sc_mcu7t5v0__fillcap_4
XTAP_TAPCELL_ROW_8_79 VDD VSS gf180mcu_fd_sc_mcu7t5v0__filltie
XFILLER_17_260 VDD VDD VSS VSS gf180mcu_fd_sc_mcu7t5v0__fillcap_8
X_240__37 _240_/D VDD VDD VSS VSS gf180mcu_fd_sc_mcu7t5v0__tiel
XFILLER_14_263 VDD VDD VSS VSS gf180mcu_fd_sc_mcu7t5v0__fillcap_8
X_189_ input9/Z _192_/A4 _190_/A4 VDD VDD VSS VSS gf180mcu_fd_sc_mcu7t5v0__nand2_1
XTAP_TAPCELL_ROW_5_69 VDD VSS gf180mcu_fd_sc_mcu7t5v0__filltie
XFILLER_20_34 VDD VDD VSS VSS gf180mcu_fd_sc_mcu7t5v0__fill_1
XPHY_EDGE_ROW_16_Left_39 VDD VSS gf180mcu_fd_sc_mcu7t5v0__endcap
XFILLER_0_210 VDD VDD VSS VSS gf180mcu_fd_sc_mcu7t5v0__fillcap_16
XFILLER_16_100 VDD VDD VSS VSS gf180mcu_fd_sc_mcu7t5v0__fillcap_4
Xtt_um_felixfeierabend_20 uio_oe[6] VDD VDD VSS VSS gf180mcu_fd_sc_mcu7t5v0__tiel
Xtt_um_felixfeierabend_31 uo_out[2] VDD VDD VSS VSS gf180mcu_fd_sc_mcu7t5v0__tiel
XTAP_TAPCELL_ROW_2_59 VDD VSS gf180mcu_fd_sc_mcu7t5v0__filltie
XFILLER_11_2 VDD VDD VSS VSS gf180mcu_fd_sc_mcu7t5v0__fillcap_8
XFILLER_16_177 VDD VDD VSS VSS gf180mcu_fd_sc_mcu7t5v0__fillcap_64
XFILLER_22_114 VDD VDD VSS VSS gf180mcu_fd_sc_mcu7t5v0__fill_1
XFILLER_22_169 VDD VDD VSS VSS gf180mcu_fd_sc_mcu7t5v0__fill_1
XFILLER_8_173 VDD VDD VSS VSS gf180mcu_fd_sc_mcu7t5v0__fill_2
XFILLER_10_128 VDD VDD VSS VSS gf180mcu_fd_sc_mcu7t5v0__fill_1
XPHY_EDGE_ROW_19_Left_42 VDD VSS gf180mcu_fd_sc_mcu7t5v0__endcap
XFILLER_5_132 VDD VDD VSS VSS gf180mcu_fd_sc_mcu7t5v0__fillcap_8
XFILLER_15_209 VDD VDD VSS VSS gf180mcu_fd_sc_mcu7t5v0__fill_1
XPHY_EDGE_ROW_4_Left_27 VDD VSS gf180mcu_fd_sc_mcu7t5v0__endcap
XFILLER_14_231 VDD VDD VSS VSS gf180mcu_fd_sc_mcu7t5v0__fillcap_8
XFILLER_1_190 VDD VDD VSS VSS gf180mcu_fd_sc_mcu7t5v0__fillcap_16
X_188_ _188_/A1 _187_/Z _236_/D VDD VDD VSS VSS gf180mcu_fd_sc_mcu7t5v0__nor2_1
XFILLER_9_69 VDD VDD VSS VSS gf180mcu_fd_sc_mcu7t5v0__fill_1
XFILLER_18_34 VDD VDD VSS VSS gf180mcu_fd_sc_mcu7t5v0__fill_1
XFILLER_4_208 VDD VDD VSS VSS gf180mcu_fd_sc_mcu7t5v0__fill_2
XPHY_EDGE_ROW_7_Left_30 VDD VSS gf180mcu_fd_sc_mcu7t5v0__endcap
XFILLER_6_59 VDD VDD VSS VSS gf180mcu_fd_sc_mcu7t5v0__fill_1
XFILLER_6_37 VDD VDD VSS VSS gf180mcu_fd_sc_mcu7t5v0__fillcap_16
XFILLER_19_142 VDD VDD VSS VSS gf180mcu_fd_sc_mcu7t5v0__fillcap_64
XFILLER_0_233 VDD VDD VSS VSS gf180mcu_fd_sc_mcu7t5v0__fillcap_4
Xtt_um_felixfeierabend_21 uio_oe[7] VDD VDD VSS VSS gf180mcu_fd_sc_mcu7t5v0__tiel
Xtt_um_felixfeierabend_32 uo_out[3] VDD VDD VSS VSS gf180mcu_fd_sc_mcu7t5v0__tiel
XFILLER_22_104 VDD VDD VSS VSS gf180mcu_fd_sc_mcu7t5v0__fillcap_8
XFILLER_10_107 VDD VDD VSS VSS gf180mcu_fd_sc_mcu7t5v0__fillcap_8
XPHY_EDGE_ROW_20_Left_43 VDD VSS gf180mcu_fd_sc_mcu7t5v0__endcap
XFILLER_14_243 VDD VDD VSS VSS gf180mcu_fd_sc_mcu7t5v0__fill_2
X_187_ _236_/Q _187_/A2 _187_/Z VDD VDD VSS VSS gf180mcu_fd_sc_mcu7t5v0__xor2_1
XFILLER_1_2 VDD VDD VSS VSS gf180mcu_fd_sc_mcu7t5v0__fillcap_64
Xclkload0 _221_/CLK clkload0/Z VDD VDD VSS VSS gf180mcu_fd_sc_mcu7t5v0__clkbuf_2
X_239_ _239_/D _239_/RN _203_/A1 _239_/Q VDD VDD VSS VSS gf180mcu_fd_sc_mcu7t5v0__dffrnq_1
XFILLER_3_264 VDD VDD VSS VSS gf180mcu_fd_sc_mcu7t5v0__fill_2
XTAP_TAPCELL_ROW_6_70 VDD VSS gf180mcu_fd_sc_mcu7t5v0__filltie
XFILLER_0_256 VDD VDD VSS VSS gf180mcu_fd_sc_mcu7t5v0__fillcap_8
Xtt_um_felixfeierabend_22 uio_out[0] VDD VDD VSS VSS gf180mcu_fd_sc_mcu7t5v0__tiel
Xtt_um_felixfeierabend_33 uo_out[4] VDD VDD VSS VSS gf180mcu_fd_sc_mcu7t5v0__tiel
XPHY_EDGE_ROW_19_Right_19 VDD VSS gf180mcu_fd_sc_mcu7t5v0__endcap
XFILLER_22_127 VDD VDD VSS VSS gf180mcu_fd_sc_mcu7t5v0__fill_2
XFILLER_22_138 VDD VDD VSS VSS gf180mcu_fd_sc_mcu7t5v0__fill_1
XTAP_TAPCELL_ROW_3_60 VDD VSS gf180mcu_fd_sc_mcu7t5v0__filltie
XTAP_TAPCELL_ROW_14_100 VDD VSS gf180mcu_fd_sc_mcu7t5v0__filltie
XFILLER_12_37 VDD VDD VSS VSS gf180mcu_fd_sc_mcu7t5v0__fillcap_4
XFILLER_4_93 VDD VDD VSS VSS gf180mcu_fd_sc_mcu7t5v0__fillcap_4
XFILLER_2_159 VDD VDD VSS VSS gf180mcu_fd_sc_mcu7t5v0__fill_1
X_186_ _188_/A1 _186_/A2 _235_/D VDD VDD VSS VSS gf180mcu_fd_sc_mcu7t5v0__nor2_1
XFILLER_20_247 VDD VDD VSS VSS gf180mcu_fd_sc_mcu7t5v0__fillcap_16
XTAP_TAPCELL_ROW_9_81 VDD VSS gf180mcu_fd_sc_mcu7t5v0__filltie
XTAP_TAPCELL_ROW_0_50 VDD VSS gf180mcu_fd_sc_mcu7t5v0__filltie
XFILLER_11_269 VDD VDD VSS VSS gf180mcu_fd_sc_mcu7t5v0__fill_2
XFILLER_1_72 VDD VDD VSS VSS gf180mcu_fd_sc_mcu7t5v0__fillcap_16
XFILLER_6_240 VDD VDD VSS VSS gf180mcu_fd_sc_mcu7t5v0__fillcap_4
X_238_ _238_/D _238_/RN _203_/A1 _238_/Q VDD VDD VSS VSS gf180mcu_fd_sc_mcu7t5v0__dffrnq_1
X_169_ _229_/Q _188_/A1 _229_/D VDD VDD VSS VSS gf180mcu_fd_sc_mcu7t5v0__nor2_1
XFILLER_20_37 VDD VDD VSS VSS gf180mcu_fd_sc_mcu7t5v0__fillcap_64
XTAP_TAPCELL_ROW_6_71 VDD VSS gf180mcu_fd_sc_mcu7t5v0__filltie
XFILLER_0_202 VDD VDD VSS VSS gf180mcu_fd_sc_mcu7t5v0__fill_2
XFILLER_0_268 VDD VDD VSS VSS gf180mcu_fd_sc_mcu7t5v0__fill_2
Xtt_um_felixfeierabend_23 uio_out[1] VDD VDD VSS VSS gf180mcu_fd_sc_mcu7t5v0__tiel
Xtt_um_felixfeierabend_34 uo_out[5] VDD VDD VSS VSS gf180mcu_fd_sc_mcu7t5v0__tiel
XTAP_TAPCELL_ROW_3_61 VDD VSS gf180mcu_fd_sc_mcu7t5v0__filltie
XTAP_TAPCELL_ROW_14_101 VDD VSS gf180mcu_fd_sc_mcu7t5v0__filltie
XFILLER_12_16 VDD VDD VSS VSS gf180mcu_fd_sc_mcu7t5v0__fillcap_16
X_185_ _235_/Q _181_/Z _186_/A2 VDD VDD VSS VSS gf180mcu_fd_sc_mcu7t5v0__xnor2_1
XTAP_TAPCELL_ROW_9_82 VDD VSS gf180mcu_fd_sc_mcu7t5v0__filltie
XTAP_TAPCELL_ROW_0_51 VDD VSS gf180mcu_fd_sc_mcu7t5v0__filltie
XFILLER_18_37 VDD VDD VSS VSS gf180mcu_fd_sc_mcu7t5v0__fillcap_64
X_237_ _237_/D _237_/RN _203_/A1 _237_/Q VDD VDD VSS VSS gf180mcu_fd_sc_mcu7t5v0__dffrnq_1
X_168_ _241_/Q _168_/A2 _143_/Z _188_/A1 VDD VDD VSS VSS gf180mcu_fd_sc_mcu7t5v0__nand3_4
XFILLER_3_244 VDD VDD VSS VSS gf180mcu_fd_sc_mcu7t5v0__fillcap_16
XFILLER_3_266 VDD VDD VSS VSS gf180mcu_fd_sc_mcu7t5v0__fill_1
XTAP_TAPCELL_ROW_6_72 VDD VSS gf180mcu_fd_sc_mcu7t5v0__filltie
XFILLER_16_104 VDD VDD VSS VSS gf180mcu_fd_sc_mcu7t5v0__fill_1
Xtt_um_felixfeierabend_24 uio_out[2] VDD VDD VSS VSS gf180mcu_fd_sc_mcu7t5v0__tiel
Xtt_um_felixfeierabend_35 uo_out[6] VDD VDD VSS VSS gf180mcu_fd_sc_mcu7t5v0__tiel
XPHY_EDGE_ROW_1_Right_1 VDD VSS gf180mcu_fd_sc_mcu7t5v0__endcap
XFILLER_22_129 VDD VDD VSS VSS gf180mcu_fd_sc_mcu7t5v0__fill_1
XTAP_TAPCELL_ROW_17_110 VDD VSS gf180mcu_fd_sc_mcu7t5v0__filltie
XFILLER_12_140 VDD VDD VSS VSS gf180mcu_fd_sc_mcu7t5v0__fill_2
XFILLER_16_92 VDD VDD VSS VSS gf180mcu_fd_sc_mcu7t5v0__fillcap_8
XTAP_TAPCELL_ROW_3_62 VDD VSS gf180mcu_fd_sc_mcu7t5v0__filltie
X_184_ _235_/Q _181_/Z _187_/A2 VDD VDD VSS VSS gf180mcu_fd_sc_mcu7t5v0__nand2_1
XTAP_TAPCELL_ROW_9_83 VDD VSS gf180mcu_fd_sc_mcu7t5v0__filltie
XTAP_TAPCELL_ROW_0_52 VDD VSS gf180mcu_fd_sc_mcu7t5v0__filltie
X_236_ _236_/D _236_/RN _246_/CLK _236_/Q VDD VDD VSS VSS gf180mcu_fd_sc_mcu7t5v0__dffrnq_1
X_167_ _167_/A1 _167_/A2 _221_/D VDD VDD VSS VSS gf180mcu_fd_sc_mcu7t5v0__nor2_1
XFILLER_1_96 VDD VDD VSS VSS gf180mcu_fd_sc_mcu7t5v0__fillcap_4
XFILLER_10_50 VDD VDD VSS VSS gf180mcu_fd_sc_mcu7t5v0__fill_2
XFILLER_3_212 VDD VDD VSS VSS gf180mcu_fd_sc_mcu7t5v0__fillcap_32
X_219_ _219_/D _215_/I _221_/CLK _219_/Q VDD VDD VSS VSS gf180mcu_fd_sc_mcu7t5v0__dffrnq_1
XTAP_TAPCELL_ROW_6_73 VDD VSS gf180mcu_fd_sc_mcu7t5v0__filltie
XPHY_EDGE_ROW_11_Left_34 VDD VSS gf180mcu_fd_sc_mcu7t5v0__endcap
XFILLER_0_226 VDD VDD VSS VSS gf180mcu_fd_sc_mcu7t5v0__fill_2
XFILLER_0_237 VDD VDD VSS VSS gf180mcu_fd_sc_mcu7t5v0__fill_1
Xtt_um_felixfeierabend_25 uio_out[3] VDD VDD VSS VSS gf180mcu_fd_sc_mcu7t5v0__tiel
Xtt_um_felixfeierabend_36 uo_out[7] VDD VDD VSS VSS gf180mcu_fd_sc_mcu7t5v0__tiel
Xtt_um_felixfeierabend_47 uio_oe[0] VDD VDD VSS VSS gf180mcu_fd_sc_mcu7t5v0__tieh
XFILLER_22_119 VDD VDD VSS VSS gf180mcu_fd_sc_mcu7t5v0__fill_2
Xclkbuf_0_clk clk clkbuf_0_clk/Z VDD VDD VSS VSS gf180mcu_fd_sc_mcu7t5v0__clkbuf_16
XTAP_TAPCELL_ROW_17_111 VDD VSS gf180mcu_fd_sc_mcu7t5v0__filltie
XPHY_EDGE_ROW_15_Right_15 VDD VSS gf180mcu_fd_sc_mcu7t5v0__endcap
XFILLER_8_123 VDD VDD VSS VSS gf180mcu_fd_sc_mcu7t5v0__fillcap_8
XFILLER_5_159 VDD VDD VSS VSS gf180mcu_fd_sc_mcu7t5v0__fillcap_4
XFILLER_17_244 VDD VDD VSS VSS gf180mcu_fd_sc_mcu7t5v0__fillcap_16
XFILLER_4_192 VDD VDD VSS VSS gf180mcu_fd_sc_mcu7t5v0__fillcap_16
XFILLER_2_107 VDD VDD VSS VSS gf180mcu_fd_sc_mcu7t5v0__fillcap_8
XFILLER_14_247 VDD VDD VSS VSS gf180mcu_fd_sc_mcu7t5v0__fillcap_16
X_183_ _188_/A1 _181_/Z _183_/A3 _234_/D VDD VDD VSS VSS gf180mcu_fd_sc_mcu7t5v0__nor3_1
XFILLER_6_210 VDD VDD VSS VSS gf180mcu_fd_sc_mcu7t5v0__fillcap_4
X_235_ _235_/D _235_/RN _246_/CLK _235_/Q VDD VDD VSS VSS gf180mcu_fd_sc_mcu7t5v0__dffrnq_1
X_166_ _220_/Q _162_/Z _221_/Q _167_/A2 VDD VDD VSS VSS gf180mcu_fd_sc_mcu7t5v0__aoi21_1
XTAP_TAPCELL_ROW_10_84 VDD VSS gf180mcu_fd_sc_mcu7t5v0__filltie
XFILLER_19_136 VDD VDD VSS VSS gf180mcu_fd_sc_mcu7t5v0__fillcap_4
X_218_ _218_/D _215_/I _221_/CLK _218_/Q VDD VDD VSS VSS gf180mcu_fd_sc_mcu7t5v0__dffrnq_1
X_149_ _221_/Q _220_/Q _152_/A2 VDD VDD VSS VSS gf180mcu_fd_sc_mcu7t5v0__nand2_1
Xtt_um_felixfeierabend_26 uio_out[4] VDD VDD VSS VSS gf180mcu_fd_sc_mcu7t5v0__tiel
Xtt_um_felixfeierabend_48 uio_oe[1] VDD VDD VSS VSS gf180mcu_fd_sc_mcu7t5v0__tieh
XFILLER_21_72 VDD VDD VSS VSS gf180mcu_fd_sc_mcu7t5v0__fillcap_64
XFILLER_15_150 VDD VDD VSS VSS gf180mcu_fd_sc_mcu7t5v0__fillcap_16
XFILLER_7_63 VDD VDD VSS VSS gf180mcu_fd_sc_mcu7t5v0__fillcap_4
XFILLER_21_142 VDD VDD VSS VSS gf180mcu_fd_sc_mcu7t5v0__fillcap_64
XFILLER_8_157 VDD VDD VSS VSS gf180mcu_fd_sc_mcu7t5v0__fillcap_16
XFILLER_17_212 VDD VDD VSS VSS gf180mcu_fd_sc_mcu7t5v0__fillcap_32
XFILLER_2_119 VDD VDD VSS VSS gf180mcu_fd_sc_mcu7t5v0__fill_2
XFILLER_4_53 VDD VDD VSS VSS gf180mcu_fd_sc_mcu7t5v0__fill_2
XFILLER_4_97 VDD VDD VSS VSS gf180mcu_fd_sc_mcu7t5v0__fill_2
XTAP_TAPCELL_ROW_13_95 VDD VSS gf180mcu_fd_sc_mcu7t5v0__filltie
XFILLER_14_215 VDD VDD VSS VSS gf180mcu_fd_sc_mcu7t5v0__fillcap_16
XFILLER_22_270 VDD VDD VSS VSS gf180mcu_fd_sc_mcu7t5v0__fill_1
X_182_ _234_/Q _178_/Z _183_/A3 VDD VDD VSS VSS gf180mcu_fd_sc_mcu7t5v0__nor2_1
XFILLER_13_270 VDD VDD VSS VSS gf180mcu_fd_sc_mcu7t5v0__fill_1
XFILLER_11_218 VDD VDD VSS VSS gf180mcu_fd_sc_mcu7t5v0__fill_1
XFILLER_10_240 VDD VDD VSS VSS gf180mcu_fd_sc_mcu7t5v0__fillcap_4
XFILLER_10_251 VDD VDD VSS VSS gf180mcu_fd_sc_mcu7t5v0__fillcap_16
XFILLER_6_244 VDD VDD VSS VSS gf180mcu_fd_sc_mcu7t5v0__fill_1
XFILLER_6_255 VDD VDD VSS VSS gf180mcu_fd_sc_mcu7t5v0__fillcap_8
X_234_ _234_/D _234_/RN _246_/CLK _234_/Q VDD VDD VSS VSS gf180mcu_fd_sc_mcu7t5v0__dffrnq_1
X_165_ _167_/A1 _165_/A2 _220_/D VDD VDD VSS VSS gf180mcu_fd_sc_mcu7t5v0__nor2_1
XTAP_TAPCELL_ROW_10_85 VDD VSS gf180mcu_fd_sc_mcu7t5v0__filltie
XFILLER_10_30 VDD VDD VSS VSS gf180mcu_fd_sc_mcu7t5v0__fillcap_4
XFILLER_10_52 VDD VDD VSS VSS gf180mcu_fd_sc_mcu7t5v0__fill_1
XFILLER_19_72 VDD VDD VSS VSS gf180mcu_fd_sc_mcu7t5v0__fillcap_64
X_217_ _217_/D _213_/I _221_/CLK _217_/Q VDD VDD VSS VSS gf180mcu_fd_sc_mcu7t5v0__dffrnq_1
X_148_ _219_/Q _218_/Q _217_/Q _152_/A1 VDD VDD VSS VSS gf180mcu_fd_sc_mcu7t5v0__nor3_1
XFILLER_0_228 VDD VDD VSS VSS gf180mcu_fd_sc_mcu7t5v0__fill_1
XFILLER_18_2 VDD VDD VSS VSS gf180mcu_fd_sc_mcu7t5v0__fillcap_32
XFILLER_16_107 VDD VDD VSS VSS gf180mcu_fd_sc_mcu7t5v0__fillcap_64
Xtt_um_felixfeierabend_27 uio_out[5] VDD VDD VSS VSS gf180mcu_fd_sc_mcu7t5v0__tiel
Xtt_um_felixfeierabend_49 uio_oe[2] VDD VDD VSS VSS gf180mcu_fd_sc_mcu7t5v0__tieh
XPHY_EDGE_ROW_5_Right_5 VDD VSS gf180mcu_fd_sc_mcu7t5v0__endcap
XFILLER_8_103 VDD VDD VSS VSS gf180mcu_fd_sc_mcu7t5v0__fill_2
XTAP_TAPCELL_ROW_20_119 VDD VSS gf180mcu_fd_sc_mcu7t5v0__filltie
XFILLER_17_268 VDD VDD VSS VSS gf180mcu_fd_sc_mcu7t5v0__fill_2
XFILLER_4_183 VDD VDD VSS VSS gf180mcu_fd_sc_mcu7t5v0__fillcap_4
XFILLER_1_142 VDD VDD VSS VSS gf180mcu_fd_sc_mcu7t5v0__fill_2
X_181_ _234_/Q _178_/Z _181_/Z VDD VDD VSS VSS gf180mcu_fd_sc_mcu7t5v0__and2_1
XTAP_TAPCELL_ROW_13_96 VDD VSS gf180mcu_fd_sc_mcu7t5v0__filltie
XFILLER_13_260 VDD VDD VSS VSS gf180mcu_fd_sc_mcu7t5v0__fillcap_8
XFILLER_1_66 VDD VDD VSS VSS gf180mcu_fd_sc_mcu7t5v0__fillcap_4
XFILLER_1_88 VDD VDD VSS VSS gf180mcu_fd_sc_mcu7t5v0__fillcap_8
X_233_ _233_/D _233_/RN _247_/Q _233_/Q VDD VDD VSS VSS gf180mcu_fd_sc_mcu7t5v0__dffrnq_1
X_164_ _220_/Q _162_/Z _165_/A2 VDD VDD VSS VSS gf180mcu_fd_sc_mcu7t5v0__xnor2_1
XTAP_TAPCELL_ROW_10_86 VDD VSS gf180mcu_fd_sc_mcu7t5v0__filltie
XFILLER_18_171 VDD VDD VSS VSS gf180mcu_fd_sc_mcu7t5v0__fillcap_4
X_216_ _216_/D _213_/I _221_/CLK _216_/Q VDD VDD VSS VSS gf180mcu_fd_sc_mcu7t5v0__dffrnq_1
X_147_ _281_/I _147_/A2 _147_/B _228_/D VDD VDD VSS VSS gf180mcu_fd_sc_mcu7t5v0__aoi21_1
Xtt_um_felixfeierabend_17 uio_oe[3] VDD VDD VSS VSS gf180mcu_fd_sc_mcu7t5v0__tiel
Xtt_um_felixfeierabend_28 uio_out[6] VDD VDD VSS VSS gf180mcu_fd_sc_mcu7t5v0__tiel
XPHY_EDGE_ROW_15_Left_38 VDD VSS gf180mcu_fd_sc_mcu7t5v0__endcap
XPHY_EDGE_ROW_20_Right_20 VDD VSS gf180mcu_fd_sc_mcu7t5v0__endcap
XPHY_EDGE_ROW_11_Right_11 VDD VSS gf180mcu_fd_sc_mcu7t5v0__endcap
XFILLER_4_173 VDD VDD VSS VSS gf180mcu_fd_sc_mcu7t5v0__fill_2
XFILLER_4_99 VDD VDD VSS VSS gf180mcu_fd_sc_mcu7t5v0__fill_1
XFILLER_13_53 VDD VDD VSS VSS gf180mcu_fd_sc_mcu7t5v0__fill_1
XFILLER_14_239 VDD VDD VSS VSS gf180mcu_fd_sc_mcu7t5v0__fillcap_4
X_180_ _188_/A1 _178_/Z _180_/A3 _233_/D VDD VDD VSS VSS gf180mcu_fd_sc_mcu7t5v0__nor3_1
XTAP_TAPCELL_ROW_13_97 VDD VSS gf180mcu_fd_sc_mcu7t5v0__filltie
XPHY_EDGE_ROW_18_Left_41 VDD VSS gf180mcu_fd_sc_mcu7t5v0__endcap
XFILLER_9_265 VDD VDD VSS VSS gf180mcu_fd_sc_mcu7t5v0__fillcap_4
XFILLER_8_2 VDD VDD VSS VSS gf180mcu_fd_sc_mcu7t5v0__fillcap_8
XPHY_EDGE_ROW_3_Left_26 VDD VSS gf180mcu_fd_sc_mcu7t5v0__endcap
XFILLER_6_224 VDD VDD VSS VSS gf180mcu_fd_sc_mcu7t5v0__fillcap_16
X_232_ _232_/D _232_/RN _246_/CLK _232_/Q VDD VDD VSS VSS gf180mcu_fd_sc_mcu7t5v0__dffrnq_1
X_163_ _167_/A1 _163_/A2 _162_/Z _219_/D VDD VDD VSS VSS gf180mcu_fd_sc_mcu7t5v0__nor3_1
XTAP_TAPCELL_ROW_10_87 VDD VSS gf180mcu_fd_sc_mcu7t5v0__filltie
X_215_ _215_/I _240_/RN VDD VDD VSS VSS gf180mcu_fd_sc_mcu7t5v0__clkinv_1
X_146_ _281_/I _146_/A2 _146_/A3 _241_/Q _147_/B VDD VDD VSS VSS gf180mcu_fd_sc_mcu7t5v0__oai31_1
Xtt_um_felixfeierabend_18 uio_oe[4] VDD VDD VSS VSS gf180mcu_fd_sc_mcu7t5v0__tiel
Xtt_um_felixfeierabend_29 uio_out[7] VDD VDD VSS VSS gf180mcu_fd_sc_mcu7t5v0__tiel
XFILLER_7_22 VDD VDD VSS VSS gf180mcu_fd_sc_mcu7t5v0__fill_1
X_129_ _134_/A1 _245_/Q _172_/A1 _244_/Q _135_/B VDD VDD VSS VSS gf180mcu_fd_sc_mcu7t5v0__oai22_2
X_227__41 _227_/D VDD VDD VSS VSS gf180mcu_fd_sc_mcu7t5v0__tiel
XFILLER_4_34 VDD VDD VSS VSS gf180mcu_fd_sc_mcu7t5v0__fill_1
XFILLER_22_240 VDD VDD VSS VSS gf180mcu_fd_sc_mcu7t5v0__fillcap_16
X_224__44 _224_/D VDD VDD VSS VSS gf180mcu_fd_sc_mcu7t5v0__tiel
XFILLER_1_100 VDD VDD VSS VSS gf180mcu_fd_sc_mcu7t5v0__fill_2
XTAP_TAPCELL_ROW_0_46 VDD VSS gf180mcu_fd_sc_mcu7t5v0__filltie
XFILLER_6_214 VDD VDD VSS VSS gf180mcu_fd_sc_mcu7t5v0__fill_2
XFILLER_6_247 VDD VDD VSS VSS gf180mcu_fd_sc_mcu7t5v0__fillcap_4
X_231_ _231_/D _231_/RN _246_/CLK _231_/Q VDD VDD VSS VSS gf180mcu_fd_sc_mcu7t5v0__dffrnq_1
X_162_ _219_/Q _159_/Z _162_/Z VDD VDD VSS VSS gf180mcu_fd_sc_mcu7t5v0__and2_1
XFILLER_10_22 VDD VDD VSS VSS gf180mcu_fd_sc_mcu7t5v0__fillcap_8
Xinput1 ena _202_/B VDD VDD VSS VSS gf180mcu_fd_sc_mcu7t5v0__clkbuf_1
X_214_ _215_/I _239_/RN VDD VDD VSS VSS gf180mcu_fd_sc_mcu7t5v0__clkinv_1
X_145_ _168_/A2 _143_/Z _147_/A2 VDD VDD VSS VSS gf180mcu_fd_sc_mcu7t5v0__nand2_1
Xtt_um_felixfeierabend_19 uio_oe[5] VDD VDD VSS VSS gf180mcu_fd_sc_mcu7t5v0__tiel
XFILLER_15_187 VDD VDD VSS VSS gf180mcu_fd_sc_mcu7t5v0__fillcap_16
XFILLER_16_2 VDD VDD VSS VSS gf180mcu_fd_sc_mcu7t5v0__fillcap_8
X_128_ _232_/Q _200_/A1 _231_/Q _198_/A1 _134_/B VDD VDD VSS VSS gf180mcu_fd_sc_mcu7t5v0__aoi22_1
XFILLER_7_67 VDD VDD VSS VSS gf180mcu_fd_sc_mcu7t5v0__fill_2
XFILLER_12_124 VDD VDD VSS VSS gf180mcu_fd_sc_mcu7t5v0__fillcap_16
XFILLER_12_157 VDD VDD VSS VSS gf180mcu_fd_sc_mcu7t5v0__fillcap_8
XFILLER_16_10 VDD VDD VSS VSS gf180mcu_fd_sc_mcu7t5v0__fillcap_4
XTAP_TAPCELL_ROW_22_130 VDD VSS gf180mcu_fd_sc_mcu7t5v0__filltie
XPHY_EDGE_ROW_9_Right_9 VDD VSS gf180mcu_fd_sc_mcu7t5v0__endcap
Xfanout12 _246_/CLK _203_/A1 VDD VDD VSS VSS gf180mcu_fd_sc_mcu7t5v0__buf_2
XTAP_TAPCELL_ROW_0_47 VDD VSS gf180mcu_fd_sc_mcu7t5v0__filltie
XFILLER_9_212 VDD VDD VSS VSS gf180mcu_fd_sc_mcu7t5v0__fill_2
XFILLER_10_244 VDD VDD VSS VSS gf180mcu_fd_sc_mcu7t5v0__fill_1
XFILLER_6_204 VDD VDD VSS VSS gf180mcu_fd_sc_mcu7t5v0__fill_1
X_230_ _230_/D _230_/RN _246_/CLK _230_/Q VDD VDD VSS VSS gf180mcu_fd_sc_mcu7t5v0__dffrnq_1
X_161_ _219_/Q _159_/Z _163_/A2 VDD VDD VSS VSS gf180mcu_fd_sc_mcu7t5v0__nor2_1
XFILLER_10_34 VDD VDD VSS VSS gf180mcu_fd_sc_mcu7t5v0__fill_1
XFILLER_3_207 VDD VDD VSS VSS gf180mcu_fd_sc_mcu7t5v0__fill_2
Xinput2 rst_n input2/Z VDD VDD VSS VSS gf180mcu_fd_sc_mcu7t5v0__clkbuf_2
X_213_ _213_/I _238_/RN VDD VDD VSS VSS gf180mcu_fd_sc_mcu7t5v0__clkinv_1
X_144_ _144_/A1 _144_/A2 _146_/A3 VDD VDD VSS VSS gf180mcu_fd_sc_mcu7t5v0__nand2_1
XFILLER_21_66 VDD VDD VSS VSS gf180mcu_fd_sc_mcu7t5v0__fillcap_4
XFILLER_15_111 VDD VDD VSS VSS gf180mcu_fd_sc_mcu7t5v0__fillcap_16
XFILLER_15_166 VDD VDD VSS VSS gf180mcu_fd_sc_mcu7t5v0__fillcap_4
X_127_ _230_/Q _196_/A1 _194_/A1 _229_/Q _132_/A2 VDD VDD VSS VSS gf180mcu_fd_sc_mcu7t5v0__oai22_1
XFILLER_12_103 VDD VDD VSS VSS gf180mcu_fd_sc_mcu7t5v0__fill_2
XFILLER_21_136 VDD VDD VSS VSS gf180mcu_fd_sc_mcu7t5v0__fillcap_4
XTAP_TAPCELL_ROW_22_131 VDD VSS gf180mcu_fd_sc_mcu7t5v0__filltie
XFILLER_8_107 VDD VDD VSS VSS gf180mcu_fd_sc_mcu7t5v0__fillcap_16
XFILLER_7_173 VDD VDD VSS VSS gf180mcu_fd_sc_mcu7t5v0__fill_2
XFILLER_17_206 VDD VDD VSS VSS gf180mcu_fd_sc_mcu7t5v0__fillcap_4
XFILLER_4_187 VDD VDD VSS VSS gf180mcu_fd_sc_mcu7t5v0__fill_1
XFILLER_1_102 VDD VDD VSS VSS gf180mcu_fd_sc_mcu7t5v0__fill_1
XFILLER_22_264 VDD VDD VSS VSS gf180mcu_fd_sc_mcu7t5v0__fillcap_4
Xfanout13 _247_/Q _246_/CLK VDD VDD VSS VSS gf180mcu_fd_sc_mcu7t5v0__buf_2
XTAP_TAPCELL_ROW_0_48 VDD VSS gf180mcu_fd_sc_mcu7t5v0__filltie
XFILLER_10_267 VDD VDD VSS VSS gf180mcu_fd_sc_mcu7t5v0__fillcap_4
XFILLER_6_2 VDD VDD VSS VSS gf180mcu_fd_sc_mcu7t5v0__fillcap_32
X_160_ _167_/A1 _160_/A2 _159_/Z _218_/D VDD VDD VSS VSS gf180mcu_fd_sc_mcu7t5v0__nor3_1
Xinput3 ui_in[0] _123_/I VDD VDD VSS VSS gf180mcu_fd_sc_mcu7t5v0__clkbuf_1
XPHY_EDGE_ROW_18_Right_18 VDD VSS gf180mcu_fd_sc_mcu7t5v0__endcap
XFILLER_19_66 VDD VDD VSS VSS gf180mcu_fd_sc_mcu7t5v0__fillcap_4
X_212_ _215_/I _237_/RN VDD VDD VSS VSS gf180mcu_fd_sc_mcu7t5v0__clkinv_1
X_143_ _144_/A1 _144_/A2 _143_/Z VDD VDD VSS VSS gf180mcu_fd_sc_mcu7t5v0__and2_1
XFILLER_2_241 VDD VDD VSS VSS gf180mcu_fd_sc_mcu7t5v0__fillcap_4