* NGSPICE file created from tt_um_felixfeierabend.ext - technology: gf180mcuD

* Black-box entry subcircuit for gf180mcu_fd_sc_mcu7t5v0__fill_1 abstract view
.subckt gf180mcu_fd_sc_mcu7t5v0__fill_1 VDD VNW VPW VSS
.ends

* Black-box entry subcircuit for gf180mcu_fd_sc_mcu7t5v0__fill_2 abstract view
.subckt gf180mcu_fd_sc_mcu7t5v0__fill_2 VDD VNW VPW VSS
.ends

* Black-box entry subcircuit for gf180mcu_fd_sc_mcu7t5v0__fillcap_16 abstract view
.subckt gf180mcu_fd_sc_mcu7t5v0__fillcap_16 VDD VNW VPW VSS
.ends

* Black-box entry subcircuit for gf180mcu_fd_sc_mcu7t5v0__filltie abstract view
.subckt gf180mcu_fd_sc_mcu7t5v0__filltie VDD VSS
.ends

* Black-box entry subcircuit for gf180mcu_fd_sc_mcu7t5v0__endcap abstract view
.subckt gf180mcu_fd_sc_mcu7t5v0__endcap VDD VSS
.ends

* Black-box entry subcircuit for gf180mcu_fd_sc_mcu7t5v0__fillcap_8 abstract view
.subckt gf180mcu_fd_sc_mcu7t5v0__fillcap_8 VDD VNW VPW VSS
.ends

* Black-box entry subcircuit for gf180mcu_fd_sc_mcu7t5v0__and3_1 abstract view
.subckt gf180mcu_fd_sc_mcu7t5v0__and3_1 A1 A2 A3 Z VDD VNW VPW VSS
.ends

* Black-box entry subcircuit for gf180mcu_fd_sc_mcu7t5v0__fillcap_4 abstract view
.subckt gf180mcu_fd_sc_mcu7t5v0__fillcap_4 VDD VNW VPW VSS
.ends

* Black-box entry subcircuit for gf180mcu_fd_sc_mcu7t5v0__and2_1 abstract view
.subckt gf180mcu_fd_sc_mcu7t5v0__and2_1 A1 A2 Z VDD VNW VPW VSS
.ends

* Black-box entry subcircuit for gf180mcu_fd_sc_mcu7t5v0__nor2_1 abstract view
.subckt gf180mcu_fd_sc_mcu7t5v0__nor2_1 A1 A2 ZN VDD VNW VPW VSS
.ends

* Black-box entry subcircuit for gf180mcu_fd_sc_mcu7t5v0__fillcap_32 abstract view
.subckt gf180mcu_fd_sc_mcu7t5v0__fillcap_32 VDD VNW VPW VSS
.ends

* Black-box entry subcircuit for gf180mcu_fd_sc_mcu7t5v0__fillcap_64 abstract view
.subckt gf180mcu_fd_sc_mcu7t5v0__fillcap_64 VDD VNW VPW VSS
.ends

* Black-box entry subcircuit for gf180mcu_fd_sc_mcu7t5v0__nor3_1 abstract view
.subckt gf180mcu_fd_sc_mcu7t5v0__nor3_1 A1 A2 A3 ZN VDD VNW VPW VSS
.ends

* Black-box entry subcircuit for gf180mcu_fd_sc_mcu7t5v0__tiel abstract view
.subckt gf180mcu_fd_sc_mcu7t5v0__tiel ZN VDD VNW VPW VSS
.ends

* Black-box entry subcircuit for gf180mcu_fd_sc_mcu7t5v0__dffrnq_1 abstract view
.subckt gf180mcu_fd_sc_mcu7t5v0__dffrnq_1 D RN CLK Q VDD VNW VPW VSS
.ends

* Black-box entry subcircuit for gf180mcu_fd_sc_mcu7t5v0__clkbuf_2 abstract view
.subckt gf180mcu_fd_sc_mcu7t5v0__clkbuf_2 I Z VDD VNW VPW VSS
.ends

* Black-box entry subcircuit for gf180mcu_fd_sc_mcu7t5v0__aoi21_1 abstract view
.subckt gf180mcu_fd_sc_mcu7t5v0__aoi21_1 A1 A2 B ZN VDD VNW VPW VSS
.ends

* Black-box entry subcircuit for gf180mcu_fd_sc_mcu7t5v0__clkinv_1 abstract view
.subckt gf180mcu_fd_sc_mcu7t5v0__clkinv_1 I ZN VDD VNW VPW VSS
.ends

* Black-box entry subcircuit for gf180mcu_fd_sc_mcu7t5v0__aoi21_2 abstract view
.subckt gf180mcu_fd_sc_mcu7t5v0__aoi21_2 A1 A2 B ZN VDD VNW VPW VSS
.ends

* Black-box entry subcircuit for gf180mcu_fd_sc_mcu7t5v0__clkbuf_16 abstract view
.subckt gf180mcu_fd_sc_mcu7t5v0__clkbuf_16 I Z VDD VNW VPW VSS
.ends

* Black-box entry subcircuit for gf180mcu_fd_sc_mcu7t5v0__oai22_1 abstract view
.subckt gf180mcu_fd_sc_mcu7t5v0__oai22_1 A1 A2 B1 B2 ZN VDD VNW VPW VSS
.ends

* Black-box entry subcircuit for gf180mcu_fd_sc_mcu7t5v0__mux2_2 abstract view
.subckt gf180mcu_fd_sc_mcu7t5v0__mux2_2 I0 I1 S Z VDD VNW VPW VSS
.ends

* Black-box entry subcircuit for gf180mcu_fd_sc_mcu7t5v0__tieh abstract view
.subckt gf180mcu_fd_sc_mcu7t5v0__tieh Z VDD VNW VPW VSS
.ends

* Black-box entry subcircuit for gf180mcu_fd_sc_mcu7t5v0__aoi22_1 abstract view
.subckt gf180mcu_fd_sc_mcu7t5v0__aoi22_1 A1 A2 B1 B2 ZN VDD VNW VPW VSS
.ends

* Black-box entry subcircuit for gf180mcu_fd_sc_mcu7t5v0__oai211_1 abstract view
.subckt gf180mcu_fd_sc_mcu7t5v0__oai211_1 A1 A2 B C ZN VDD VNW VPW VSS
.ends

* Black-box entry subcircuit for gf180mcu_fd_sc_mcu7t5v0__nand2_4 abstract view
.subckt gf180mcu_fd_sc_mcu7t5v0__nand2_4 A1 A2 ZN VDD VNW VPW VSS
.ends

* Black-box entry subcircuit for gf180mcu_fd_sc_mcu7t5v0__clkbuf_3 abstract view
.subckt gf180mcu_fd_sc_mcu7t5v0__clkbuf_3 I Z VDD VNW VPW VSS
.ends

* Black-box entry subcircuit for gf180mcu_fd_sc_mcu7t5v0__nor3_2 abstract view
.subckt gf180mcu_fd_sc_mcu7t5v0__nor3_2 A1 A2 A3 ZN VDD VNW VPW VSS
.ends

* Black-box entry subcircuit for gf180mcu_fd_sc_mcu7t5v0__xnor2_1 abstract view
.subckt gf180mcu_fd_sc_mcu7t5v0__xnor2_1 A1 A2 ZN VDD VNW VPW VSS
.ends

* Black-box entry subcircuit for gf180mcu_fd_sc_mcu7t5v0__clkbuf_1 abstract view
.subckt gf180mcu_fd_sc_mcu7t5v0__clkbuf_1 I Z VDD VNW VPW VSS
.ends

* Black-box entry subcircuit for gf180mcu_fd_sc_mcu7t5v0__buf_2 abstract view
.subckt gf180mcu_fd_sc_mcu7t5v0__buf_2 I Z VDD VNW VPW VSS
.ends

* Black-box entry subcircuit for gf180mcu_fd_sc_mcu7t5v0__inv_1 abstract view
.subckt gf180mcu_fd_sc_mcu7t5v0__inv_1 I ZN VDD VNW VPW VSS
.ends

* Black-box entry subcircuit for gf180mcu_fd_sc_mcu7t5v0__nand2_2 abstract view
.subckt gf180mcu_fd_sc_mcu7t5v0__nand2_2 A1 A2 ZN VDD VNW VPW VSS
.ends

* Black-box entry subcircuit for gf180mcu_fd_sc_mcu7t5v0__clkbuf_4 abstract view
.subckt gf180mcu_fd_sc_mcu7t5v0__clkbuf_4 I Z VDD VNW VPW VSS
.ends

* Black-box entry subcircuit for gf180mcu_fd_sc_mcu7t5v0__xor2_1 abstract view
.subckt gf180mcu_fd_sc_mcu7t5v0__xor2_1 A1 A2 Z VDD VNW VPW VSS
.ends

* Black-box entry subcircuit for gf180mcu_fd_sc_mcu7t5v0__oai211_2 abstract view
.subckt gf180mcu_fd_sc_mcu7t5v0__oai211_2 A1 A2 B C ZN VDD VNW VPW VSS
.ends

* Black-box entry subcircuit for gf180mcu_fd_sc_mcu7t5v0__and4_1 abstract view
.subckt gf180mcu_fd_sc_mcu7t5v0__and4_1 A1 A2 A3 A4 Z VDD VNW VPW VSS
.ends

* Black-box entry subcircuit for gf180mcu_fd_sc_mcu7t5v0__nor4_2 abstract view
.subckt gf180mcu_fd_sc_mcu7t5v0__nor4_2 A1 A2 A3 A4 ZN VDD VNW VPW VSS
.ends

* Black-box entry subcircuit for gf180mcu_fd_sc_mcu7t5v0__nand2_1 abstract view
.subckt gf180mcu_fd_sc_mcu7t5v0__nand2_1 A1 A2 ZN VDD VNW VPW VSS
.ends

* Black-box entry subcircuit for gf180mcu_fd_sc_mcu7t5v0__oai211_4 abstract view
.subckt gf180mcu_fd_sc_mcu7t5v0__oai211_4 A1 A2 B C ZN VDD VNW VPW VSS
.ends

* Black-box entry subcircuit for gf180mcu_fd_sc_mcu7t5v0__or2_1 abstract view
.subckt gf180mcu_fd_sc_mcu7t5v0__or2_1 A1 A2 Z VDD VNW VPW VSS
.ends

* Black-box entry subcircuit for gf180mcu_fd_sc_mcu7t5v0__nor4_4 abstract view
.subckt gf180mcu_fd_sc_mcu7t5v0__nor4_4 A1 A2 A3 A4 ZN VDD VNW VPW VSS
.ends

* Black-box entry subcircuit for gf180mcu_fd_sc_mcu7t5v0__dffsnq_1 abstract view
.subckt gf180mcu_fd_sc_mcu7t5v0__dffsnq_1 D SETN CLK Q VDD VNW VPW VSS
.ends

* Black-box entry subcircuit for gf180mcu_fd_sc_mcu7t5v0__oai21_1 abstract view
.subckt gf180mcu_fd_sc_mcu7t5v0__oai21_1 A1 A2 B ZN VDD VNW VPW VSS
.ends

* Black-box entry subcircuit for gf180mcu_fd_sc_mcu7t5v0__aoi211_1 abstract view
.subckt gf180mcu_fd_sc_mcu7t5v0__aoi211_1 A1 A2 B C ZN VDD VNW VPW VSS
.ends

.subckt tt_um_felixfeierabend VDD VSS clk ena rst_n ui_in[0] ui_in[1] ui_in[2] ui_in[3]
+ ui_in[4] ui_in[5] ui_in[6] ui_in[7] uio_in[0] uio_in[1] uio_in[2] uio_in[3] uio_in[4]
+ uio_in[5] uio_in[6] uio_in[7] uio_oe[0] uio_oe[1] uio_oe[2] uio_oe[3] uio_oe[4]
+ uio_oe[5] uio_oe[6] uio_oe[7] uio_out[0] uio_out[1] uio_out[2] uio_out[3] uio_out[4]
+ uio_out[5] uio_out[6] uio_out[7] uo_out[0] uo_out[1] uo_out[2] uo_out[3] uo_out[4]
+ uo_out[5] uo_out[6] uo_out[7]
XFILLER_22_144 VDD VDD VSS VSS gf180mcu_fd_sc_mcu7t5v0__fill_1
XFILLER_12_32 VDD VDD VSS VSS gf180mcu_fd_sc_mcu7t5v0__fill_2
XFILLER_18_247 VDD VDD VSS VSS gf180mcu_fd_sc_mcu7t5v0__fillcap_16
XTAP_TAPCELL_ROW_8_77 VDD VSS gf180mcu_fd_sc_mcu7t5v0__filltie
XTAP_TAPCELL_ROW_20_120 VDD VSS gf180mcu_fd_sc_mcu7t5v0__filltie
XPHY_EDGE_ROW_0_Left_23 VDD VSS gf180mcu_fd_sc_mcu7t5v0__endcap
XFILLER_6_107 VDD VDD VSS VSS gf180mcu_fd_sc_mcu7t5v0__fillcap_8
XFILLER_15_228 VDD VDD VSS VSS gf180mcu_fd_sc_mcu7t5v0__fill_2
X_131_ _170_/Q _169_/Q _171_/Q _131_/Z VDD VDD VSS VSS gf180mcu_fd_sc_mcu7t5v0__and3_1
XFILLER_21_209 VDD VDD VSS VSS gf180mcu_fd_sc_mcu7t5v0__fill_1
XFILLER_9_66 VDD VDD VSS VSS gf180mcu_fd_sc_mcu7t5v0__fillcap_4
X_114_ _186_/Q _111_/Z _114_/Z VDD VDD VSS VSS gf180mcu_fd_sc_mcu7t5v0__and2_1
XTAP_TAPCELL_ROW_5_67 VDD VSS gf180mcu_fd_sc_mcu7t5v0__filltie
XFILLER_3_260 VDD VDD VSS VSS gf180mcu_fd_sc_mcu7t5v0__fillcap_8
XFILLER_15_10 VDD VDD VSS VSS gf180mcu_fd_sc_mcu7t5v0__fill_2
XFILLER_15_76 VDD VDD VSS VSS gf180mcu_fd_sc_mcu7t5v0__fill_2
XTAP_TAPCELL_ROW_2_57 VDD VSS gf180mcu_fd_sc_mcu7t5v0__filltie
XTAP_TAPCELL_ROW_18_115 VDD VSS gf180mcu_fd_sc_mcu7t5v0__filltie
XFILLER_22_101 VDD VDD VSS VSS gf180mcu_fd_sc_mcu7t5v0__fill_1
XFILLER_22_112 VDD VDD VSS VSS gf180mcu_fd_sc_mcu7t5v0__fill_2
XFILLER_13_134 VDD VDD VSS VSS gf180mcu_fd_sc_mcu7t5v0__fillcap_4
XFILLER_13_189 VDD VDD VSS VSS gf180mcu_fd_sc_mcu7t5v0__fillcap_16
XFILLER_3_68 VDD VDD VSS VSS gf180mcu_fd_sc_mcu7t5v0__fill_2
XFILLER_8_193 VDD VDD VSS VSS gf180mcu_fd_sc_mcu7t5v0__fillcap_4
XTAP_TAPCELL_ROW_8_78 VDD VSS gf180mcu_fd_sc_mcu7t5v0__filltie
XTAP_TAPCELL_ROW_20_121 VDD VSS gf180mcu_fd_sc_mcu7t5v0__filltie
XFILLER_17_270 VDD VDD VSS VSS gf180mcu_fd_sc_mcu7t5v0__fill_1
X_130_ _140_/A1 _130_/A2 _170_/D VDD VDD VSS VSS gf180mcu_fd_sc_mcu7t5v0__nor2_1
XPHY_EDGE_ROW_21_Right_21 VDD VSS gf180mcu_fd_sc_mcu7t5v0__endcap
XPHY_EDGE_ROW_12_Right_12 VDD VSS gf180mcu_fd_sc_mcu7t5v0__endcap
XFILLER_0_36 VDD VDD VSS VSS gf180mcu_fd_sc_mcu7t5v0__fillcap_32
XFILLER_2_177 VDD VDD VSS VSS gf180mcu_fd_sc_mcu7t5v0__fillcap_64
X_113_ _118_/C _111_/Z _113_/A3 _185_/D VDD VDD VSS VSS gf180mcu_fd_sc_mcu7t5v0__nor3_1
XTAP_TAPCELL_ROW_5_68 VDD VSS gf180mcu_fd_sc_mcu7t5v0__filltie
XPHY_EDGE_ROW_6_Right_6 VDD VSS gf180mcu_fd_sc_mcu7t5v0__endcap
XFILLER_0_264 VDD VDD VSS VSS gf180mcu_fd_sc_mcu7t5v0__fillcap_4
Xtt_um_felixfeierabend_30 uio_out[7] VDD VDD VSS VSS gf180mcu_fd_sc_mcu7t5v0__tiel
XTAP_TAPCELL_ROW_2_58 VDD VSS gf180mcu_fd_sc_mcu7t5v0__filltie
XFILLER_13_146 VDD VDD VSS VSS gf180mcu_fd_sc_mcu7t5v0__fillcap_8
XFILLER_3_36 VDD VDD VSS VSS gf180mcu_fd_sc_mcu7t5v0__fillcap_32
XFILLER_12_34 VDD VDD VSS VSS gf180mcu_fd_sc_mcu7t5v0__fill_1
XTAP_TAPCELL_ROW_20_122 VDD VSS gf180mcu_fd_sc_mcu7t5v0__filltie
XFILLER_5_142 VDD VDD VSS VSS gf180mcu_fd_sc_mcu7t5v0__fillcap_8
XTAP_TAPCELL_ROW_8_79 VDD VSS gf180mcu_fd_sc_mcu7t5v0__filltie
XFILLER_17_260 VDD VDD VSS VSS gf180mcu_fd_sc_mcu7t5v0__fillcap_8
XFILLER_2_101 VDD VDD VSS VSS gf180mcu_fd_sc_mcu7t5v0__fillcap_4
X_189_ _189_/D _189_/RN _197_/CLK _189_/Q VDD VDD VSS VSS gf180mcu_fd_sc_mcu7t5v0__dffrnq_1
X_112_ _185_/Q _108_/Z _113_/A3 VDD VDD VSS VSS gf180mcu_fd_sc_mcu7t5v0__nor2_1
XTAP_TAPCELL_ROW_5_69 VDD VSS gf180mcu_fd_sc_mcu7t5v0__filltie
XFILLER_20_34 VDD VDD VSS VSS gf180mcu_fd_sc_mcu7t5v0__fill_1
X_189__47 _189_/D VDD VDD VSS VSS gf180mcu_fd_sc_mcu7t5v0__tiel
XPHY_EDGE_ROW_16_Left_39 VDD VSS gf180mcu_fd_sc_mcu7t5v0__endcap
Xtt_um_felixfeierabend_20 uio_oe[5] VDD VDD VSS VSS gf180mcu_fd_sc_mcu7t5v0__tiel
Xtt_um_felixfeierabend_31 uo_out[1] VDD VDD VSS VSS gf180mcu_fd_sc_mcu7t5v0__tiel
XTAP_TAPCELL_ROW_2_59 VDD VSS gf180mcu_fd_sc_mcu7t5v0__filltie
XFILLER_11_2 VDD VDD VSS VSS gf180mcu_fd_sc_mcu7t5v0__fillcap_8
XFILLER_16_177 VDD VDD VSS VSS gf180mcu_fd_sc_mcu7t5v0__fillcap_8
XFILLER_22_114 VDD VDD VSS VSS gf180mcu_fd_sc_mcu7t5v0__fill_1
XFILLER_13_114 VDD VDD VSS VSS gf180mcu_fd_sc_mcu7t5v0__fillcap_4
XFILLER_22_169 VDD VDD VSS VSS gf180mcu_fd_sc_mcu7t5v0__fill_1
XFILLER_12_24 VDD VDD VSS VSS gf180mcu_fd_sc_mcu7t5v0__fillcap_8
XPHY_EDGE_ROW_19_Left_42 VDD VSS gf180mcu_fd_sc_mcu7t5v0__endcap
XFILLER_5_198 VDD VDD VSS VSS gf180mcu_fd_sc_mcu7t5v0__fillcap_8
XPHY_EDGE_ROW_4_Left_27 VDD VSS gf180mcu_fd_sc_mcu7t5v0__endcap
X_188_ _188_/D _188_/RN _197_/CLK _188_/Q VDD VDD VSS VSS gf180mcu_fd_sc_mcu7t5v0__dffrnq_1
XFILLER_11_201 VDD VDD VSS VSS gf180mcu_fd_sc_mcu7t5v0__fill_1
XFILLER_18_34 VDD VDD VSS VSS gf180mcu_fd_sc_mcu7t5v0__fill_1
XFILLER_11_234 VDD VDD VSS VSS gf180mcu_fd_sc_mcu7t5v0__fill_2
X_111_ _185_/Q _108_/Z _111_/Z VDD VDD VSS VSS gf180mcu_fd_sc_mcu7t5v0__and2_1
XPHY_EDGE_ROW_7_Left_30 VDD VSS gf180mcu_fd_sc_mcu7t5v0__endcap
XFILLER_6_37 VDD VDD VSS VSS gf180mcu_fd_sc_mcu7t5v0__fillcap_16
XFILLER_19_142 VDD VDD VSS VSS gf180mcu_fd_sc_mcu7t5v0__fillcap_64
XFILLER_15_68 VDD VDD VSS VSS gf180mcu_fd_sc_mcu7t5v0__fill_2
Xtt_um_felixfeierabend_21 uio_oe[6] VDD VDD VSS VSS gf180mcu_fd_sc_mcu7t5v0__tiel
Xtt_um_felixfeierabend_32 uo_out[2] VDD VDD VSS VSS gf180mcu_fd_sc_mcu7t5v0__tiel
XFILLER_22_104 VDD VDD VSS VSS gf180mcu_fd_sc_mcu7t5v0__fillcap_8
XFILLER_7_80 VDD VDD VSS VSS gf180mcu_fd_sc_mcu7t5v0__fillcap_8
XFILLER_8_174 VDD VDD VSS VSS gf180mcu_fd_sc_mcu7t5v0__fill_1
XFILLER_5_100 VDD VDD VSS VSS gf180mcu_fd_sc_mcu7t5v0__fill_2
XFILLER_5_166 VDD VDD VSS VSS gf180mcu_fd_sc_mcu7t5v0__fillcap_32
XPHY_EDGE_ROW_20_Left_43 VDD VSS gf180mcu_fd_sc_mcu7t5v0__endcap
XFILLER_14_254 VDD VDD VSS VSS gf180mcu_fd_sc_mcu7t5v0__fillcap_16
X_187_ _187_/D _187_/RN _198_/Q _187_/Q VDD VDD VSS VSS gf180mcu_fd_sc_mcu7t5v0__dffrnq_1
XFILLER_9_48 VDD VDD VSS VSS gf180mcu_fd_sc_mcu7t5v0__fill_2
XFILLER_1_2 VDD VDD VSS VSS gf180mcu_fd_sc_mcu7t5v0__fillcap_64
Xclkload0 _198_/CLK clkload0/Z VDD VDD VSS VSS gf180mcu_fd_sc_mcu7t5v0__clkbuf_2
X_110_ _118_/C _108_/Z _110_/A3 _184_/D VDD VDD VSS VSS gf180mcu_fd_sc_mcu7t5v0__nor3_1
XFILLER_7_228 VDD VDD VSS VSS gf180mcu_fd_sc_mcu7t5v0__fill_2
XTAP_TAPCELL_ROW_6_70 VDD VSS gf180mcu_fd_sc_mcu7t5v0__filltie
XFILLER_0_256 VDD VDD VSS VSS gf180mcu_fd_sc_mcu7t5v0__fillcap_8
Xtt_um_felixfeierabend_22 uio_oe[7] VDD VDD VSS VSS gf180mcu_fd_sc_mcu7t5v0__tiel
Xtt_um_felixfeierabend_33 uo_out[3] VDD VDD VSS VSS gf180mcu_fd_sc_mcu7t5v0__tiel
XPHY_EDGE_ROW_19_Right_19 VDD VSS gf180mcu_fd_sc_mcu7t5v0__endcap
XFILLER_22_127 VDD VDD VSS VSS gf180mcu_fd_sc_mcu7t5v0__fillcap_4
XFILLER_7_92 VDD VDD VSS VSS gf180mcu_fd_sc_mcu7t5v0__fill_2
XFILLER_13_127 VDD VDD VSS VSS gf180mcu_fd_sc_mcu7t5v0__fill_2
XFILLER_13_138 VDD VDD VSS VSS gf180mcu_fd_sc_mcu7t5v0__fill_2
XTAP_TAPCELL_ROW_3_60 VDD VSS gf180mcu_fd_sc_mcu7t5v0__filltie
XTAP_TAPCELL_ROW_14_100 VDD VSS gf180mcu_fd_sc_mcu7t5v0__filltie
XFILLER_12_37 VDD VDD VSS VSS gf180mcu_fd_sc_mcu7t5v0__fill_1
X_186_ _186_/D _186_/RN _197_/CLK _186_/Q VDD VDD VSS VSS gf180mcu_fd_sc_mcu7t5v0__dffrnq_1
XFILLER_20_247 VDD VDD VSS VSS gf180mcu_fd_sc_mcu7t5v0__fillcap_16
XTAP_TAPCELL_ROW_9_81 VDD VSS gf180mcu_fd_sc_mcu7t5v0__filltie
XTAP_TAPCELL_ROW_0_50 VDD VSS gf180mcu_fd_sc_mcu7t5v0__filltie
XFILLER_11_236 VDD VDD VSS VSS gf180mcu_fd_sc_mcu7t5v0__fill_1
XFILLER_7_207 VDD VDD VSS VSS gf180mcu_fd_sc_mcu7t5v0__fill_2
XFILLER_1_72 VDD VDD VSS VSS gf180mcu_fd_sc_mcu7t5v0__fillcap_64
X_169_ _169_/D _198_/RN _180_/CLK _169_/Q VDD VDD VSS VSS gf180mcu_fd_sc_mcu7t5v0__dffrnq_1
XFILLER_6_251 VDD VDD VSS VSS gf180mcu_fd_sc_mcu7t5v0__fill_2
XFILLER_20_37 VDD VDD VSS VSS gf180mcu_fd_sc_mcu7t5v0__fillcap_64
XFILLER_10_92 VDD VDD VSS VSS gf180mcu_fd_sc_mcu7t5v0__fillcap_8
XTAP_TAPCELL_ROW_6_71 VDD VSS gf180mcu_fd_sc_mcu7t5v0__filltie
XFILLER_0_268 VDD VDD VSS VSS gf180mcu_fd_sc_mcu7t5v0__fill_2
Xtt_um_felixfeierabend_23 uio_out[0] VDD VDD VSS VSS gf180mcu_fd_sc_mcu7t5v0__tiel
Xtt_um_felixfeierabend_34 uo_out[4] VDD VDD VSS VSS gf180mcu_fd_sc_mcu7t5v0__tiel
XFILLER_21_150 VDD VDD VSS VSS gf180mcu_fd_sc_mcu7t5v0__fill_2
X_176__42 _176_/D VDD VDD VSS VSS gf180mcu_fd_sc_mcu7t5v0__tiel
X_191__45 _191_/D VDD VDD VSS VSS gf180mcu_fd_sc_mcu7t5v0__tiel
XFILLER_12_172 VDD VDD VSS VSS gf180mcu_fd_sc_mcu7t5v0__fill_2
XTAP_TAPCELL_ROW_3_61 VDD VSS gf180mcu_fd_sc_mcu7t5v0__filltie
XTAP_TAPCELL_ROW_14_101 VDD VSS gf180mcu_fd_sc_mcu7t5v0__filltie
XFILLER_5_102 VDD VDD VSS VSS gf180mcu_fd_sc_mcu7t5v0__fill_1
XFILLER_14_201 VDD VDD VSS VSS gf180mcu_fd_sc_mcu7t5v0__fillcap_4
X_185_ _185_/D _185_/RN _197_/CLK _185_/Q VDD VDD VSS VSS gf180mcu_fd_sc_mcu7t5v0__dffrnq_1
XTAP_TAPCELL_ROW_9_82 VDD VSS gf180mcu_fd_sc_mcu7t5v0__filltie
XTAP_TAPCELL_ROW_0_51 VDD VSS gf180mcu_fd_sc_mcu7t5v0__filltie
XFILLER_18_37 VDD VDD VSS VSS gf180mcu_fd_sc_mcu7t5v0__fillcap_64
XFILLER_10_270 VDD VDD VSS VSS gf180mcu_fd_sc_mcu7t5v0__fill_1
X_168_ _168_/D _168_/RN _197_/CLK _232_/I VDD VDD VSS VSS gf180mcu_fd_sc_mcu7t5v0__dffrnq_1
X_099_ _185_/Q _153_/A1 _186_/Q _102_/B VDD VDD VSS VSS gf180mcu_fd_sc_mcu7t5v0__aoi21_1
XFILLER_3_244 VDD VDD VSS VSS gf180mcu_fd_sc_mcu7t5v0__fillcap_16
XFILLER_6_18 VDD VDD VSS VSS gf180mcu_fd_sc_mcu7t5v0__fillcap_4
XTAP_TAPCELL_ROW_6_72 VDD VSS gf180mcu_fd_sc_mcu7t5v0__filltie
XFILLER_16_104 VDD VDD VSS VSS gf180mcu_fd_sc_mcu7t5v0__fill_1
Xtt_um_felixfeierabend_24 uio_out[1] VDD VDD VSS VSS gf180mcu_fd_sc_mcu7t5v0__tiel
Xtt_um_felixfeierabend_35 uo_out[5] VDD VDD VSS VSS gf180mcu_fd_sc_mcu7t5v0__tiel
XPHY_EDGE_ROW_1_Right_1 VDD VSS gf180mcu_fd_sc_mcu7t5v0__endcap
XTAP_TAPCELL_ROW_17_110 VDD VSS gf180mcu_fd_sc_mcu7t5v0__filltie
XFILLER_13_118 VDD VDD VSS VSS gf180mcu_fd_sc_mcu7t5v0__fill_2
XFILLER_13_129 VDD VDD VSS VSS gf180mcu_fd_sc_mcu7t5v0__fill_1
XFILLER_7_94 VDD VDD VSS VSS gf180mcu_fd_sc_mcu7t5v0__fill_1
XTAP_TAPCELL_ROW_3_62 VDD VSS gf180mcu_fd_sc_mcu7t5v0__filltie
XFILLER_8_177 VDD VDD VSS VSS gf180mcu_fd_sc_mcu7t5v0__fillcap_16
X_184_ _184_/D _184_/RN _155_/A1 _184_/Q VDD VDD VSS VSS gf180mcu_fd_sc_mcu7t5v0__dffrnq_1
XTAP_TAPCELL_ROW_9_83 VDD VSS gf180mcu_fd_sc_mcu7t5v0__filltie
XTAP_TAPCELL_ROW_0_52 VDD VSS gf180mcu_fd_sc_mcu7t5v0__filltie
XFILLER_7_209 VDD VDD VSS VSS gf180mcu_fd_sc_mcu7t5v0__fill_1
X_167_ _167_/I _192_/RN VDD VDD VSS VSS gf180mcu_fd_sc_mcu7t5v0__clkinv_1
X_098_ _098_/A1 _098_/A2 _098_/B _105_/A1 VDD VDD VSS VSS gf180mcu_fd_sc_mcu7t5v0__aoi21_2
XFILLER_3_212 VDD VDD VSS VSS gf180mcu_fd_sc_mcu7t5v0__fillcap_32
XTAP_TAPCELL_ROW_6_73 VDD VSS gf180mcu_fd_sc_mcu7t5v0__filltie
XPHY_EDGE_ROW_11_Left_34 VDD VSS gf180mcu_fd_sc_mcu7t5v0__endcap
Xtt_um_felixfeierabend_25 uio_out[2] VDD VDD VSS VSS gf180mcu_fd_sc_mcu7t5v0__tiel
Xtt_um_felixfeierabend_36 uo_out[6] VDD VDD VSS VSS gf180mcu_fd_sc_mcu7t5v0__tiel
XFILLER_22_119 VDD VDD VSS VSS gf180mcu_fd_sc_mcu7t5v0__fillcap_8
Xclkbuf_0_clk clk clkbuf_0_clk/Z VDD VDD VSS VSS gf180mcu_fd_sc_mcu7t5v0__clkbuf_16
XTAP_TAPCELL_ROW_17_111 VDD VSS gf180mcu_fd_sc_mcu7t5v0__filltie
XFILLER_21_152 VDD VDD VSS VSS gf180mcu_fd_sc_mcu7t5v0__fill_1
XPHY_EDGE_ROW_15_Right_15 VDD VSS gf180mcu_fd_sc_mcu7t5v0__endcap
XFILLER_12_174 VDD VDD VSS VSS gf180mcu_fd_sc_mcu7t5v0__fill_1
XFILLER_8_123 VDD VDD VSS VSS gf180mcu_fd_sc_mcu7t5v0__fillcap_16
XFILLER_5_137 VDD VDD VSS VSS gf180mcu_fd_sc_mcu7t5v0__fill_2
XFILLER_17_244 VDD VDD VSS VSS gf180mcu_fd_sc_mcu7t5v0__fillcap_16
XFILLER_2_107 VDD VDD VSS VSS gf180mcu_fd_sc_mcu7t5v0__fillcap_64
XFILLER_14_247 VDD VDD VSS VSS gf180mcu_fd_sc_mcu7t5v0__fill_2
X_183_ _183_/D _183_/RN _155_/A1 _183_/Q VDD VDD VSS VSS gf180mcu_fd_sc_mcu7t5v0__dffrnq_1
X_166_ _166_/I _191_/RN VDD VDD VSS VSS gf180mcu_fd_sc_mcu7t5v0__clkinv_1
X_097_ _101_/A1 _196_/Q _195_/Q _107_/A1 _098_/B VDD VDD VSS VSS gf180mcu_fd_sc_mcu7t5v0__oai22_1
XFILLER_3_268 VDD VDD VSS VSS gf180mcu_fd_sc_mcu7t5v0__fill_2
XTAP_TAPCELL_ROW_10_84 VDD VSS gf180mcu_fd_sc_mcu7t5v0__filltie
XFILLER_19_136 VDD VDD VSS VSS gf180mcu_fd_sc_mcu7t5v0__fillcap_4
X_149_ input5/Z _194_/Q _151_/S _194_/D VDD VDD VSS VSS gf180mcu_fd_sc_mcu7t5v0__mux2_2
Xtt_um_felixfeierabend_26 uio_out[3] VDD VDD VSS VSS gf180mcu_fd_sc_mcu7t5v0__tiel
Xtt_um_felixfeierabend_37 uo_out[7] VDD VDD VSS VSS gf180mcu_fd_sc_mcu7t5v0__tiel
Xtt_um_felixfeierabend_48 uio_oe[0] VDD VDD VSS VSS gf180mcu_fd_sc_mcu7t5v0__tieh
XFILLER_21_72 VDD VDD VSS VSS gf180mcu_fd_sc_mcu7t5v0__fillcap_64
XFILLER_16_83 VDD VDD VSS VSS gf180mcu_fd_sc_mcu7t5v0__fill_1
XFILLER_21_142 VDD VDD VSS VSS gf180mcu_fd_sc_mcu7t5v0__fillcap_8
XFILLER_12_164 VDD VDD VSS VSS gf180mcu_fd_sc_mcu7t5v0__fillcap_8
XFILLER_17_212 VDD VDD VSS VSS gf180mcu_fd_sc_mcu7t5v0__fillcap_32
XFILLER_4_171 VDD VDD VSS VSS gf180mcu_fd_sc_mcu7t5v0__fillcap_4
XTAP_TAPCELL_ROW_13_95 VDD VSS gf180mcu_fd_sc_mcu7t5v0__filltie
X_182_ _182_/D _182_/RN _155_/A1 _182_/Q VDD VDD VSS VSS gf180mcu_fd_sc_mcu7t5v0__dffrnq_1
X_165_ _166_/I _190_/RN VDD VDD VSS VSS gf180mcu_fd_sc_mcu7t5v0__clkinv_1
X_096_ _107_/A1 _195_/Q _142_/A1 _194_/Q _098_/A2 VDD VDD VSS VSS gf180mcu_fd_sc_mcu7t5v0__aoi22_1
XTAP_TAPCELL_ROW_10_85 VDD VSS gf180mcu_fd_sc_mcu7t5v0__filltie
XFILLER_10_41 VDD VDD VSS VSS gf180mcu_fd_sc_mcu7t5v0__fill_1
XFILLER_19_72 VDD VDD VSS VSS gf180mcu_fd_sc_mcu7t5v0__fillcap_64
X_148_ input4/Z _193_/Q _151_/S _193_/D VDD VDD VSS VSS gf180mcu_fd_sc_mcu7t5v0__mux2_2
XFILLER_0_206 VDD VDD VSS VSS gf180mcu_fd_sc_mcu7t5v0__fillcap_32
XFILLER_18_2 VDD VDD VSS VSS gf180mcu_fd_sc_mcu7t5v0__fillcap_32
XFILLER_16_107 VDD VDD VSS VSS gf180mcu_fd_sc_mcu7t5v0__fillcap_64
Xtt_um_felixfeierabend_27 uio_out[4] VDD VDD VSS VSS gf180mcu_fd_sc_mcu7t5v0__tiel
Xtt_um_felixfeierabend_49 uio_oe[1] VDD VDD VSS VSS gf180mcu_fd_sc_mcu7t5v0__tieh
XPHY_EDGE_ROW_5_Right_5 VDD VSS gf180mcu_fd_sc_mcu7t5v0__endcap
XFILLER_8_103 VDD VDD VSS VSS gf180mcu_fd_sc_mcu7t5v0__fill_2
XTAP_TAPCELL_ROW_20_119 VDD VSS gf180mcu_fd_sc_mcu7t5v0__filltie
XFILLER_17_268 VDD VDD VSS VSS gf180mcu_fd_sc_mcu7t5v0__fill_2
XFILLER_5_139 VDD VDD VSS VSS gf180mcu_fd_sc_mcu7t5v0__fill_1
XFILLER_14_205 VDD VDD VSS VSS gf180mcu_fd_sc_mcu7t5v0__fill_2
XFILLER_14_249 VDD VDD VSS VSS gf180mcu_fd_sc_mcu7t5v0__fill_1
XFILLER_1_142 VDD VDD VSS VSS gf180mcu_fd_sc_mcu7t5v0__fillcap_64
X_181_ _181_/D _181_/RN _155_/A1 _181_/Q VDD VDD VSS VSS gf180mcu_fd_sc_mcu7t5v0__dffrnq_1
XTAP_TAPCELL_ROW_13_96 VDD VSS gf180mcu_fd_sc_mcu7t5v0__filltie
XFILLER_1_66 VDD VDD VSS VSS gf180mcu_fd_sc_mcu7t5v0__fillcap_4
X_164_ _167_/I _189_/RN VDD VDD VSS VSS gf180mcu_fd_sc_mcu7t5v0__clkinv_1
X_095_ _142_/A1 _194_/Q _193_/Q _095_/C _098_/A1 VDD VDD VSS VSS gf180mcu_fd_sc_mcu7t5v0__oai211_1
XTAP_TAPCELL_ROW_10_86 VDD VSS gf180mcu_fd_sc_mcu7t5v0__filltie
XFILLER_18_171 VDD VDD VSS VSS gf180mcu_fd_sc_mcu7t5v0__fillcap_4
X_147_ input3/Z _147_/A2 _151_/S VDD VDD VSS VSS gf180mcu_fd_sc_mcu7t5v0__nand2_4
Xtt_um_felixfeierabend_28 uio_out[5] VDD VDD VSS VSS gf180mcu_fd_sc_mcu7t5v0__tiel
XFILLER_15_174 VDD VDD VSS VSS gf180mcu_fd_sc_mcu7t5v0__fill_2
XPHY_EDGE_ROW_15_Left_38 VDD VSS gf180mcu_fd_sc_mcu7t5v0__endcap
XFILLER_12_111 VDD VDD VSS VSS gf180mcu_fd_sc_mcu7t5v0__fill_2
XFILLER_12_177 VDD VDD VSS VSS gf180mcu_fd_sc_mcu7t5v0__fill_2
XFILLER_16_30 VDD VDD VSS VSS gf180mcu_fd_sc_mcu7t5v0__fillcap_4
XPHY_EDGE_ROW_20_Right_20 VDD VSS gf180mcu_fd_sc_mcu7t5v0__endcap
XPHY_EDGE_ROW_11_Right_11 VDD VSS gf180mcu_fd_sc_mcu7t5v0__endcap
XFILLER_8_115 VDD VDD VSS VSS gf180mcu_fd_sc_mcu7t5v0__fillcap_4
X_180_ _180_/D _198_/RN _180_/CLK _180_/Q VDD VDD VSS VSS gf180mcu_fd_sc_mcu7t5v0__dffrnq_1
XTAP_TAPCELL_ROW_13_97 VDD VSS gf180mcu_fd_sc_mcu7t5v0__filltie
XPHY_EDGE_ROW_18_Left_41 VDD VSS gf180mcu_fd_sc_mcu7t5v0__endcap
XFILLER_8_2 VDD VDD VSS VSS gf180mcu_fd_sc_mcu7t5v0__fillcap_8
XPHY_EDGE_ROW_3_Left_26 VDD VSS gf180mcu_fd_sc_mcu7t5v0__endcap
X_163_ _167_/I _188_/RN VDD VDD VSS VSS gf180mcu_fd_sc_mcu7t5v0__clkinv_1
X_232_ _232_/I uo_out[0] VDD VDD VSS VSS gf180mcu_fd_sc_mcu7t5v0__clkbuf_3
X_094_ _167_/I _168_/RN VDD VDD VSS VSS gf180mcu_fd_sc_mcu7t5v0__clkinv_1
XTAP_TAPCELL_ROW_10_87 VDD VSS gf180mcu_fd_sc_mcu7t5v0__filltie
XFILLER_10_21 VDD VDD VSS VSS gf180mcu_fd_sc_mcu7t5v0__fill_1
X_146_ _146_/A1 input9/Z _146_/A3 _147_/A2 VDD VDD VSS VSS gf180mcu_fd_sc_mcu7t5v0__nor3_2
Xtt_um_felixfeierabend_18 uio_oe[3] VDD VDD VSS VSS gf180mcu_fd_sc_mcu7t5v0__tiel
Xtt_um_felixfeierabend_29 uio_out[6] VDD VDD VSS VSS gf180mcu_fd_sc_mcu7t5v0__tiel
XFILLER_15_120 VDD VDD VSS VSS gf180mcu_fd_sc_mcu7t5v0__fillcap_4
XFILLER_15_142 VDD VDD VSS VSS gf180mcu_fd_sc_mcu7t5v0__fillcap_32
XFILLER_7_88 VDD VDD VSS VSS gf180mcu_fd_sc_mcu7t5v0__fillcap_4
X_129_ _170_/Q _169_/Q _130_/A2 VDD VDD VSS VSS gf180mcu_fd_sc_mcu7t5v0__xnor2_1
XFILLER_16_53 VDD VDD VSS VSS gf180mcu_fd_sc_mcu7t5v0__fill_2
XFILLER_16_75 VDD VDD VSS VSS gf180mcu_fd_sc_mcu7t5v0__fillcap_8
XFILLER_4_34 VDD VDD VSS VSS gf180mcu_fd_sc_mcu7t5v0__fill_1
XFILLER_14_207 VDD VDD VSS VSS gf180mcu_fd_sc_mcu7t5v0__fill_1
XFILLER_22_240 VDD VDD VSS VSS gf180mcu_fd_sc_mcu7t5v0__fillcap_16
XFILLER_13_262 VDD VDD VSS VSS gf180mcu_fd_sc_mcu7t5v0__fill_2
XTAP_TAPCELL_ROW_0_46 VDD VSS gf180mcu_fd_sc_mcu7t5v0__filltie
XFILLER_9_233 VDD VDD VSS VSS gf180mcu_fd_sc_mcu7t5v0__fill_2
X_162_ _167_/I _187_/RN VDD VDD VSS VSS gf180mcu_fd_sc_mcu7t5v0__clkinv_1
X_093_ _181_/Q _095_/C VDD VDD VSS VSS gf180mcu_fd_sc_mcu7t5v0__clkinv_1
XFILLER_6_247 VDD VDD VSS VSS gf180mcu_fd_sc_mcu7t5v0__fillcap_4
XFILLER_3_206 VDD VDD VSS VSS gf180mcu_fd_sc_mcu7t5v0__fillcap_4
Xinput1 ena _154_/B VDD VDD VSS VSS gf180mcu_fd_sc_mcu7t5v0__clkbuf_1
X_145_ _118_/C _145_/A2 _145_/A3 _183_/D VDD VDD VSS VSS gf180mcu_fd_sc_mcu7t5v0__nor3_1
Xtt_um_felixfeierabend_19 uio_oe[4] VDD VDD VSS VSS gf180mcu_fd_sc_mcu7t5v0__tiel
XFILLER_16_2 VDD VDD VSS VSS gf180mcu_fd_sc_mcu7t5v0__fillcap_8
X_128_ _169_/Q _140_/A1 _169_/D VDD VDD VSS VSS gf180mcu_fd_sc_mcu7t5v0__nor2_1
XFILLER_12_113 VDD VDD VSS VSS gf180mcu_fd_sc_mcu7t5v0__fill_1
XFILLER_16_10 VDD VDD VSS VSS gf180mcu_fd_sc_mcu7t5v0__fillcap_4
XTAP_TAPCELL_ROW_22_130 VDD VSS gf180mcu_fd_sc_mcu7t5v0__filltie
XFILLER_8_139 VDD VDD VSS VSS gf180mcu_fd_sc_mcu7t5v0__fill_1
XPHY_EDGE_ROW_9_Right_9 VDD VSS gf180mcu_fd_sc_mcu7t5v0__endcap
Xfanout12 _155_/A1 _197_/CLK VDD VDD VSS VSS gf180mcu_fd_sc_mcu7t5v0__buf_2
XTAP_TAPCELL_ROW_0_47 VDD VSS gf180mcu_fd_sc_mcu7t5v0__filltie
XFILLER_9_212 VDD VDD VSS VSS gf180mcu_fd_sc_mcu7t5v0__fill_1
XFILLER_10_211 VDD VDD VSS VSS gf180mcu_fd_sc_mcu7t5v0__fill_1
X_161_ _167_/I _186_/RN VDD VDD VSS VSS gf180mcu_fd_sc_mcu7t5v0__clkinv_1
X_092_ _182_/Q _142_/A1 VDD VDD VSS VSS gf180mcu_fd_sc_mcu7t5v0__inv_1
Xinput2 rst_n input2/Z VDD VDD VSS VSS gf180mcu_fd_sc_mcu7t5v0__clkbuf_1
X_144_ _182_/Q _181_/Q _183_/Q _145_/A3 VDD VDD VSS VSS gf180mcu_fd_sc_mcu7t5v0__aoi21_1
XFILLER_21_66 VDD VDD VSS VSS gf180mcu_fd_sc_mcu7t5v0__fillcap_4
X_127_ _154_/B _127_/A2 _140_/A1 VDD VDD VSS VSS gf180mcu_fd_sc_mcu7t5v0__nand2_2
XFILLER_7_68 VDD VDD VSS VSS gf180mcu_fd_sc_mcu7t5v0__fill_2
XFILLER_16_22 VDD VDD VSS VSS gf180mcu_fd_sc_mcu7t5v0__fillcap_8
XFILLER_16_88 VDD VDD VSS VSS gf180mcu_fd_sc_mcu7t5v0__fillcap_16
XFILLER_21_136 VDD VDD VSS VSS gf180mcu_fd_sc_mcu7t5v0__fillcap_4
XFILLER_21_169 VDD VDD VSS VSS gf180mcu_fd_sc_mcu7t5v0__fillcap_32
XTAP_TAPCELL_ROW_22_131 VDD VSS gf180mcu_fd_sc_mcu7t5v0__filltie
XFILLER_8_107 VDD VDD VSS VSS gf180mcu_fd_sc_mcu7t5v0__fillcap_8
XFILLER_11_191 VDD VDD VSS VSS gf180mcu_fd_sc_mcu7t5v0__fillcap_8
XFILLER_7_162 VDD VDD VSS VSS gf180mcu_fd_sc_mcu7t5v0__fill_2
XFILLER_17_206 VDD VDD VSS VSS gf180mcu_fd_sc_mcu7t5v0__fillcap_4
XFILLER_13_67 VDD VDD VSS VSS gf180mcu_fd_sc_mcu7t5v0__fill_2
XFILLER_22_264 VDD VDD VSS VSS gf180mcu_fd_sc_mcu7t5v0__fill_2
Xfanout13 _198_/Q _155_/A1 VDD VDD VSS VSS gf180mcu_fd_sc_mcu7t5v0__buf_2
XTAP_TAPCELL_ROW_0_48 VDD VSS gf180mcu_fd_sc_mcu7t5v0__filltie
XFILLER_13_264 VDD VDD VSS VSS gf180mcu_fd_sc_mcu7t5v0__fill_1
X_160_ _167_/I _185_/RN VDD VDD VSS VSS gf180mcu_fd_sc_mcu7t5v0__clkinv_1
X_091_ _197_/Q _153_/A1 VDD VDD VSS VSS gf180mcu_fd_sc_mcu7t5v0__clkinv_1
XFILLER_6_2 VDD VDD VSS VSS gf180mcu_fd_sc_mcu7t5v0__fillcap_16
Xinput3 ui_in[0] input3/Z VDD VDD VSS VSS gf180mcu_fd_sc_mcu7t5v0__clkbuf_1
XPHY_EDGE_ROW_18_Right_18 VDD VSS gf180mcu_fd_sc_mcu7t5v0__endcap
XFILLER_19_66 VDD VDD VSS VSS gf180mcu_fd_sc_mcu7t5v0__fillcap_4
X_143_ _118_/C _142_/Z _182_/D VDD VDD VSS VSS gf180mcu_fd_sc_mcu7t5v0__nor2_1
XFILLER_2_241 VDD VDD VSS VSS gf180mcu_fd_sc_mcu7t5v0__fillcap_4
XFILLER_2_263 VDD VDD VSS VSS gf180mcu_fd_sc_mcu7t5v0__fillcap_8
XFILLER_15_112 VDD VDD VSS VSS gf180mcu_fd_sc_mcu7t5v0__fillcap_8
X_126_ _126_/I _127_/A2 VDD VDD VSS VSS gf180mcu_fd_sc_mcu7t5v0__clkinv_1
XFILLER_16_34 VDD VDD VSS VSS gf180mcu_fd_sc_mcu7t5v0__fill_1
XFILLER_12_148 VDD VDD VSS VSS gf180mcu_fd_sc_mcu7t5v0__fillcap_16
XTAP_TAPCELL_ROW_22_132 VDD VSS gf180mcu_fd_sc_mcu7t5v0__filltie
XPHY_EDGE_ROW_0_Right_0 VDD VSS gf180mcu_fd_sc_mcu7t5v0__endcap
XFILLER_21_2 VDD VDD VSS VSS gf180mcu_fd_sc_mcu7t5v0__fillcap_64
X_109_ _184_/Q _145_/A2 _110_/A3 VDD VDD VSS VSS gf180mcu_fd_sc_mcu7t5v0__nor2_1
XFILLER_4_177 VDD VDD VSS VSS gf180mcu_fd_sc_mcu7t5v0__fillcap_64
XFILLER_4_37 VDD VDD VSS VSS gf180mcu_fd_sc_mcu7t5v0__fillcap_64
XFILLER_1_136 VDD VDD VSS VSS gf180mcu_fd_sc_mcu7t5v0__fillcap_4
XFILLER_22_210 VDD VDD VSS VSS gf180mcu_fd_sc_mcu7t5v0__fillcap_16
Xfanout14 _166_/I _198_/RN VDD VDD VSS VSS gf180mcu_fd_sc_mcu7t5v0__clkbuf_4
XTAP_TAPCELL_ROW_0_49 VDD VSS gf180mcu_fd_sc_mcu7t5v0__filltie
X_090_ _183_/Q _107_/A1 VDD VDD VSS VSS gf180mcu_fd_sc_mcu7t5v0__clkinv_1
Xinput4 ui_in[3] input4/Z VDD VDD VSS VSS gf180mcu_fd_sc_mcu7t5v0__clkbuf_1
X_142_ _142_/A1 _181_/Q _142_/Z VDD VDD VSS VSS gf180mcu_fd_sc_mcu7t5v0__xor2_1
XFILLER_15_124 VDD VDD VSS VSS gf180mcu_fd_sc_mcu7t5v0__fill_1
X_125_ _125_/A1 _125_/A2 _125_/B _125_/C _126_/I VDD VDD VSS VSS gf180mcu_fd_sc_mcu7t5v0__oai211_2
XTAP_TAPCELL_ROW_11_90 VDD VSS gf180mcu_fd_sc_mcu7t5v0__filltie
XPHY_EDGE_ROW_10_Left_33 VDD VSS gf180mcu_fd_sc_mcu7t5v0__endcap
XFILLER_14_2 VDD VDD VSS VSS gf180mcu_fd_sc_mcu7t5v0__fillcap_8
XFILLER_19_260 VDD VDD VSS VSS gf180mcu_fd_sc_mcu7t5v0__fillcap_4
X_108_ _184_/Q _183_/Q _182_/Q _181_/Q _108_/Z VDD VDD VSS VSS gf180mcu_fd_sc_mcu7t5v0__and4_1
XFILLER_7_164 VDD VDD VSS VSS gf180mcu_fd_sc_mcu7t5v0__fill_1
XFILLER_7_142 VDD VDD VSS VSS gf180mcu_fd_sc_mcu7t5v0__fillcap_16
XFILLER_8_91 VDD VDD VSS VSS gf180mcu_fd_sc_mcu7t5v0__fillcap_8
XFILLER_16_241 VDD VDD VSS VSS gf180mcu_fd_sc_mcu7t5v0__fillcap_4
XFILLER_16_263 VDD VDD VSS VSS gf180mcu_fd_sc_mcu7t5v0__fillcap_4
XFILLER_4_101 VDD VDD VSS VSS gf180mcu_fd_sc_mcu7t5v0__fillcap_4
XFILLER_13_69 VDD VDD VSS VSS gf180mcu_fd_sc_mcu7t5v0__fill_1
XFILLER_22_266 VDD VDD VSS VSS gf180mcu_fd_sc_mcu7t5v0__fill_1
Xfanout15 _166_/I _158_/I VDD VDD VSS VSS gf180mcu_fd_sc_mcu7t5v0__buf_2
XFILLER_8_270 VDD VDD VSS VSS gf180mcu_fd_sc_mcu7t5v0__fill_1
XFILLER_14_90 VDD VDD VSS VSS gf180mcu_fd_sc_mcu7t5v0__fillcap_8
Xinput5 ui_in[4] input5/Z VDD VDD VSS VSS gf180mcu_fd_sc_mcu7t5v0__clkbuf_1