*SPEF "ieee 1481-1999"
*DESIGN "tiny_tonegen"
*DATE "21:54:17 Tuesday December 02, 2025"
*VENDOR "The OpenROAD Project"
*PROGRAM "OpenROAD"
*VERSION "v2.0-16235-gedf00dff9"
*DESIGN_FLOW "NAME_SCOPE LOCAL" "PIN_CAP NONE"
*DIVIDER /
*DELIMITER :
*BUS_DELIMITER []
*T_UNIT 1 NS
*C_UNIT 1 PF
*R_UNIT 1 OHM
*L_UNIT 1 HENRY

*NAME_MAP
*3 address_in[0]
*4 address_in[1]
*5 address_in[2]
*6 clk
*7 data_in[0]
*8 data_in[1]
*9 data_in[2]
*10 data_in[3]
*11 data_in[4]
*12 ena
*13 rst_n
*14 signal_bit_out
*15 write_strobe_in
*16 _000_
*17 _001_
*18 _002_
*19 _003_
*20 _004_
*21 _008_
*22 _009_
*23 _010_
*24 _011_
*25 _012_
*26 _013_
*27 _014_
*28 _015_
*29 _016_
*30 _017_
*31 _018_
*32 _019_
*33 _020_
*34 _021_
*35 _022_
*36 _023_
*37 _024_
*38 _025_
*39 _026_
*40 _027_
*41 _028_
*42 _029_
*43 _030_
*44 _031_
*45 _032_
*46 _033_
*47 _034_
*48 _035_
*49 _036_
*50 _037_
*51 _038_
*52 _039_
*53 _040_
*54 _041_
*55 _042_
*56 _043_
*57 _044_
*58 _045_
*59 _046_
*60 _047_
*61 _048_
*62 _049_
*63 _050_
*64 _051_
*65 _052_
*66 _053_
*67 _054_
*68 _055_
*69 _056_
*70 _057_
*71 _058_
*72 _059_
*73 _060_
*74 _061_
*75 _062_
*76 _063_
*77 _064_
*78 _065_
*79 _066_
*80 _067_
*81 _068_
*82 _069_
*83 _070_
*84 _071_
*85 _072_
*86 _073_
*87 _074_
*88 _075_
*89 _076_
*90 _077_
*91 _078_
*92 _079_
*93 _080_
*94 _081_
*95 _082_
*96 _083_
*97 _084_
*98 _085_
*99 _086_
*100 _087_
*101 _088_
*102 _089_
*103 _090_
*104 _091_
*105 _092_
*106 _093_
*107 _094_
*108 _095_
*109 _096_
*110 _097_
*111 _098_
*112 _099_
*113 _100_
*114 _101_
*115 _102_
*116 _103_
*117 _104_
*118 _105_
*119 _106_
*120 _107_
*121 _108_
*122 _109_
*123 _110_
*124 _111_
*125 _112_
*126 _113_
*127 _114_
*128 _115_
*129 _116_
*130 _117_
*131 _118_
*132 _119_
*133 _120_
*134 _121_
*135 _122_
*136 _123_
*137 _124_
*138 _125_
*139 _126_
*140 _127_
*141 _128_
*142 _129_
*143 _130_
*144 _131_
*145 _132_
*146 _133_
*147 _134_
*148 _135_
*149 _136_
*150 _137_
*151 _138_
*152 _139_
*153 _140_
*154 _141_
*155 _142_
*156 _143_
*157 _144_
*158 _145_
*159 _146_
*160 _147_
*161 _148_
*162 _149_
*163 _150_
*164 _151_
*165 _152_
*166 _153_
*167 _154_
*168 _155_
*169 _156_
*170 _157_
*171 _158_
*172 _159_
*173 _160_
*174 _161_
*175 _162_
*176 _163_
*177 _164_
*178 _165_
*179 _166_
*180 _167_
*181 _168_
*182 _169_
*183 _170_
*184 _171_
*185 _172_
*186 _173_
*187 _174_
*188 _175_
*189 _176_
*190 _177_
*191 _178_
*192 _179_
*193 _180_
*194 _181_
*195 _182_
*196 _183_
*197 _184_
*198 _185_
*199 _186_
*200 _187_
*201 _188_
*202 _189_
*203 _190_
*204 _191_
*205 _192_
*206 _193_
*207 _194_
*208 _195_
*209 _196_
*210 _197_
*211 _198_
*212 _199_
*213 _200_
*214 _201_
*215 _202_
*216 _203_
*217 _204_
*218 _205_
*219 _206_
*220 _207_
*221 _208_
*222 _209_
*223 _210_
*224 _211_
*225 _212_
*226 _213_
*227 _214_
*228 _215_
*229 _216_
*230 _217_
*231 _218_
*232 _219_
*233 _220_
*234 _221_
*235 _222_
*236 _223_
*237 _224_
*238 _225_
*239 _226_
*240 _227_
*241 _228_
*242 _229_
*243 _230_
*244 _231_
*245 _232_
*246 _233_
*247 _234_
*248 _235_
*249 _236_
*250 _237_
*251 _238_
*252 _239_
*253 _240_
*254 _241_
*255 _242_
*256 _243_
*257 _244_
*258 _245_
*259 _246_
*260 _247_
*261 _248_
*262 _249_
*263 _250_
*264 _251_
*265 _252_
*266 _253_
*267 _254_
*268 _255_
*269 _256_
*270 _257_
*271 _258_
*272 _259_
*273 _260_
*274 _261_
*275 _262_
*276 _263_
*277 _264_
*278 _265_
*279 _266_
*280 _267_
*281 _268_
*282 _269_
*283 _270_
*284 _271_
*285 _272_
*286 _273_
*287 _274_
*288 _275_
*289 _276_
*290 _277_
*291 _278_
*292 _279_
*293 _280_
*294 _281_
*295 _282_
*296 _283_
*297 _284_
*298 _285_
*299 _286_
*300 _287_
*301 _288_
*302 _289_
*303 _290_
*304 _291_
*305 _292_
*306 _293_
*307 _294_
*308 _295_
*309 _296_
*310 _297_
*311 _298_
*312 _299_
*313 _300_
*314 _301_
*315 _302_
*316 _303_
*317 _304_
*318 _305_
*319 _306_
*320 _307_
*321 _308_
*322 _309_
*323 _310_
*324 _311_
*325 _312_
*326 _313_
*327 clk_scaled
*328 clk_scaler\.counter\[0\]
*329 clk_scaler\.counter\[1\]
*330 clk_scaler\.counter\[2\]
*331 clk_scaler\.counter\[3\]
*332 clk_scaler\.counter\[4\]
*333 clk_scaler\.counter\[5\]
*334 clk_scaler\.counter\[6\]
*335 clk_scaler\.counter\[7\]
*336 clknet_0_clk
*337 clknet_1_0__leaf_clk
*338 clknet_1_1__leaf_clk
*339 net1
*340 net10
*341 net11
*342 net12
*343 net13
*344 net14
*345 net15
*346 net16
*347 net17
*348 net18
*349 net19
*350 net2
*351 net20
*352 net21
*353 net22
*354 net23
*355 net24
*356 net25
*357 net26
*358 net27
*359 net28
*360 net29
*361 net3
*362 net30
*363 net31
*364 net32
*365 net33
*366 net34
*367 net35
*368 net36
*369 net37
*370 net4
*371 net5
*372 net6
*373 net7
*374 net8
*375 net9
*376 signal_gen\.enableA
*377 signal_gen\.enableN
*378 signal_gen\.envA\[0\]
*379 signal_gen\.envA\[1\]
*380 signal_gen\.envA\[2\]
*381 signal_gen\.envA\[3\]
*382 signal_gen\.envA_gen\.state\[0\]
*383 signal_gen\.envA_gen\.state\[1\]
*384 signal_gen\.envA_gen\.timer\[0\]
*385 signal_gen\.envA_gen\.timer\[1\]
*386 signal_gen\.envA_gen\.timer\[2\]
*387 signal_gen\.envA_gen\.timer\[3\]
*388 signal_gen\.mix\.a_val\[0\]
*389 signal_gen\.mix\.a_val\[1\]
*390 signal_gen\.mix\.a_val\[2\]
*391 signal_gen\.mix\.a_val\[3\]
*392 signal_gen\.mix\.a_val\[4\]
*393 signal_gen\.mix\.mixout\[2\]
*394 signal_gen\.mix\.mixout\[3\]
*395 signal_gen\.mix\.mixout\[4\]
*396 signal_gen\.mix\.mixout\[5\]
*397 signal_gen\.mix\.mixout\[6\]
*398 signal_gen\.mix\.mixout\[7\]
*399 signal_gen\.mix\.n_val\[1\]
*400 signal_gen\.mix\.n_val\[2\]
*401 signal_gen\.mix\.n_val\[3\]
*402 signal_gen\.mix\.n_val\[4\]
*403 signal_gen\.mix\.noise
*404 signal_gen\.mix\.started
*405 signal_gen\.mix\.sum\[0\]
*406 signal_gen\.mix\.sum\[1\]
*407 signal_gen\.mix\.sum\[2\]
*408 signal_gen\.mix\.sum\[3\]
*409 signal_gen\.mix\.sum\[4\]
*410 signal_gen\.mix\.sum\[5\]
*411 signal_gen\.mix\.waveA
*412 signal_gen\.noise_gen\.feedback
*413 signal_gen\.noise_gen\.noise_reg\[0\]
*414 signal_gen\.noise_gen\.noise_reg\[10\]
*415 signal_gen\.noise_gen\.noise_reg\[11\]
*416 signal_gen\.noise_gen\.noise_reg\[12\]
*417 signal_gen\.noise_gen\.noise_reg\[13\]
*418 signal_gen\.noise_gen\.noise_reg\[2\]
*419 signal_gen\.noise_gen\.noise_reg\[3\]
*420 signal_gen\.noise_gen\.noise_reg\[4\]
*421 signal_gen\.noise_gen\.noise_reg\[5\]
*422 signal_gen\.noise_gen\.noise_reg\[6\]
*423 signal_gen\.noise_gen\.noise_reg\[7\]
*424 signal_gen\.noise_gen\.noise_reg\[8\]
*425 signal_gen\.noise_gen\.noise_reg\[9\]
*426 signal_gen\.periodA\[0\]
*427 signal_gen\.periodA\[1\]
*428 signal_gen\.periodA\[2\]
*429 signal_gen\.periodA\[3\]
*430 signal_gen\.periodA\[4\]
*431 signal_gen\.pwmGen\.clk_cnt\[0\]
*432 signal_gen\.pwmGen\.clk_cnt\[1\]
*433 signal_gen\.pwmGen\.clk_cnt\[2\]
*434 signal_gen\.pwmGen\.clk_cnt\[3\]
*435 signal_gen\.pwmGen\.clk_cnt\[4\]
*436 signal_gen\.pwmGen\.clk_cnt\[5\]
*437 signal_gen\.pwmGen\.clk_cnt\[6\]
*438 signal_gen\.pwmGen\.clk_cnt\[7\]
*439 signal_gen\.tonegenA\.counter\[0\]
*440 signal_gen\.tonegenA\.counter\[1\]
*441 signal_gen\.tonegenA\.counter\[2\]
*442 signal_gen\.tonegenA\.counter\[3\]
*443 signal_gen\.tonegenA\.counter\[4\]
*444 signal_gen\.tonegenA\.counter\[5\]
*445 signal_gen\.tonegenA\.counter\[6\]
*446 signal_gen\.tonegenA\.counter\[7\]
*447 signal_gen\.volA\[0\]
*448 signal_gen\.volA\[1\]
*449 signal_gen\.volA\[2\]
*450 signal_gen\.volA\[3\]
*451 signal_gen\.volN\[0\]
*452 signal_gen\.volN\[1\]
*453 signal_gen\.volN\[2\]
*454 signal_gen\.volN\[3\]
*455 FILLER_0_133
*456 FILLER_0_135
*457 FILLER_0_138
*458 FILLER_0_172
*459 FILLER_0_2
*460 FILLER_0_206
*461 FILLER_0_240
*462 FILLER_0_274
*463 FILLER_0_308
*464 FILLER_0_342
*465 FILLER_0_36
*466 FILLER_0_70
*467 FILLER_10_115
*468 FILLER_10_123
*469 FILLER_10_125
*470 FILLER_10_142
*471 FILLER_10_144
*472 FILLER_10_153
*473 FILLER_10_155
*474 FILLER_10_164
*475 FILLER_10_172
*476 FILLER_10_174
*477 FILLER_10_177
*478 FILLER_10_181
*479 FILLER_10_183
*480 FILLER_10_189
*481 FILLER_10_205
*482 FILLER_10_209
*483 FILLER_10_232
*484 FILLER_10_236
*485 FILLER_10_247
*486 FILLER_10_251
*487 FILLER_10_282
*488 FILLER_10_290
*489 FILLER_10_292
*490 FILLER_10_313
*491 FILLER_10_331
*492 FILLER_10_339
*493 FILLER_10_34
*494 FILLER_10_45
*495 FILLER_10_53
*496 FILLER_10_57
*497 FILLER_10_66
*498 FILLER_10_8
*499 FILLER_11_104
*500 FILLER_11_114
*501 FILLER_11_126
*502 FILLER_11_159
*503 FILLER_11_2
*504 FILLER_11_209
*505 FILLER_11_212
*506 FILLER_11_214
*507 FILLER_11_220
*508 FILLER_11_224
*509 FILLER_11_226
*510 FILLER_11_264
*511 FILLER_11_282
*512 FILLER_11_290
*513 FILLER_11_292
*514 FILLER_11_305
*515 FILLER_11_309
*516 FILLER_11_340
*517 FILLER_11_342
*518 FILLER_11_4
*519 FILLER_11_49
*520 FILLER_11_66
*521 FILLER_11_76
*522 FILLER_11_92
*523 FILLER_11_96
*524 FILLER_11_98
*525 FILLER_12_107
*526 FILLER_12_123
*527 FILLER_12_154
*528 FILLER_12_162
*529 FILLER_12_166
*530 FILLER_12_168
*531 FILLER_12_174
*532 FILLER_12_177
*533 FILLER_12_193
*534 FILLER_12_197
*535 FILLER_12_199
*536 FILLER_12_2
*537 FILLER_12_216
*538 FILLER_12_232
*539 FILLER_12_237
*540 FILLER_12_247
*541 FILLER_12_255
*542 FILLER_12_259
*543 FILLER_12_305
*544 FILLER_12_310
*545 FILLER_12_314
*546 FILLER_12_333
*547 FILLER_12_341
*548 FILLER_12_37
*549 FILLER_12_88
*550 FILLER_13_119
*551 FILLER_13_142
*552 FILLER_13_146
*553 FILLER_13_148
*554 FILLER_13_183
*555 FILLER_13_187
*556 FILLER_13_193
*557 FILLER_13_220
*558 FILLER_13_238
*559 FILLER_13_254
*560 FILLER_13_263
*561 FILLER_13_279
*562 FILLER_13_282
*563 FILLER_13_286
*564 FILLER_13_300
*565 FILLER_13_302
*566 FILLER_13_307
*567 FILLER_13_309
*568 FILLER_13_339
*569 FILLER_13_72
*570 FILLER_14_102
*571 FILLER_14_104
*572 FILLER_14_107
*573 FILLER_14_115
*574 FILLER_14_117
*575 FILLER_14_122
*576 FILLER_14_138
*577 FILLER_14_146
*578 FILLER_14_151
*579 FILLER_14_167
*580 FILLER_14_169
*581 FILLER_14_189
*582 FILLER_14_193
*583 FILLER_14_2
*584 FILLER_14_206
*585 FILLER_14_222
*586 FILLER_14_224
*587 FILLER_14_256
*588 FILLER_14_260
*589 FILLER_14_262
*590 FILLER_14_292
*591 FILLER_14_300
*592 FILLER_14_304
*593 FILLER_14_306
*594 FILLER_14_331
*595 FILLER_14_339
*596 FILLER_14_43
*597 FILLER_14_59
*598 FILLER_14_64
*599 FILLER_15_130
*600 FILLER_15_138
*601 FILLER_15_171
*602 FILLER_15_175
*603 FILLER_15_204
*604 FILLER_15_208
*605 FILLER_15_212
*606 FILLER_15_263
*607 FILLER_15_273
*608 FILLER_15_277
*609 FILLER_15_279
*610 FILLER_15_282
*611 FILLER_15_292
*612 FILLER_15_296
*613 FILLER_15_301
*614 FILLER_15_305
*615 FILLER_15_342
*616 FILLER_15_72
*617 FILLER_15_88
*618 FILLER_15_92
*619 FILLER_16_10
*620 FILLER_16_103
*621 FILLER_16_130
*622 FILLER_16_138
*623 FILLER_16_142
*624 FILLER_16_171
*625 FILLER_16_177
*626 FILLER_16_204
*627 FILLER_16_220
*628 FILLER_16_244
*629 FILLER_16_247
*630 FILLER_16_263
*631 FILLER_16_296
*632 FILLER_16_304
*633 FILLER_16_306
*634 FILLER_16_325
*635 FILLER_16_33
*636 FILLER_16_341
*637 FILLER_16_52
*638 FILLER_16_56
*639 FILLER_16_8
*640 FILLER_16_95
*641 FILLER_17_113
*642 FILLER_17_121
*643 FILLER_17_123
*644 FILLER_17_128
*645 FILLER_17_136
*646 FILLER_17_142
*647 FILLER_17_176
*648 FILLER_17_180
*649 FILLER_17_212
*650 FILLER_17_216
*651 FILLER_17_254
*652 FILLER_17_270
*653 FILLER_17_278
*654 FILLER_17_288
*655 FILLER_17_290
*656 FILLER_17_330
*657 FILLER_17_338
*658 FILLER_17_342
*659 FILLER_17_40
*660 FILLER_17_48
*661 FILLER_17_52
*662 FILLER_17_54
*663 FILLER_17_72
*664 FILLER_17_88
*665 FILLER_17_96
*666 FILLER_18_103
*667 FILLER_18_143
*668 FILLER_18_145
*669 FILLER_18_177
*670 FILLER_18_185
*671 FILLER_18_189
*672 FILLER_18_204
*673 FILLER_18_212
*674 FILLER_18_247
*675 FILLER_18_255
*676 FILLER_18_259
*677 FILLER_18_261
*678 FILLER_18_296
*679 FILLER_18_300
*680 FILLER_18_31
*681 FILLER_18_310
*682 FILLER_18_314
*683 FILLER_18_317
*684 FILLER_18_333
*685 FILLER_18_341
*686 FILLER_18_37
*687 FILLER_18_45
*688 FILLER_18_62
*689 FILLER_18_78
*690 FILLER_18_8
*691 FILLER_18_86
*692 FILLER_19_126
*693 FILLER_19_134
*694 FILLER_19_138
*695 FILLER_19_142
*696 FILLER_19_150
*697 FILLER_19_154
*698 FILLER_19_16
*699 FILLER_19_160
*700 FILLER_19_192
*701 FILLER_19_200
*702 FILLER_19_216
*703 FILLER_19_23
*704 FILLER_19_232
*705 FILLER_19_238
*706 FILLER_19_270
*707 FILLER_19_278
*708 FILLER_19_282
*709 FILLER_19_286
*710 FILLER_19_288
*711 FILLER_19_297
*712 FILLER_19_305
*713 FILLER_19_31
*714 FILLER_19_314
*715 FILLER_19_33
*716 FILLER_19_330
*717 FILLER_19_338
*718 FILLER_19_342
*719 FILLER_19_76
*720 FILLER_19_80
*721 FILLER_1_101
*722 FILLER_1_138
*723 FILLER_1_142
*724 FILLER_1_166
*725 FILLER_1_18
*726 FILLER_1_196
*727 FILLER_1_2
*728 FILLER_1_204
*729 FILLER_1_208
*730 FILLER_1_212
*731 FILLER_1_22
*732 FILLER_1_24
*733 FILLER_1_276
*734 FILLER_1_282
*735 FILLER_1_314
*736 FILLER_1_33
*737 FILLER_1_330
*738 FILLER_1_338
*739 FILLER_1_342
*740 FILLER_1_38
*741 FILLER_1_42
*742 FILLER_1_66
*743 FILLER_20_10
*744 FILLER_20_111
*745 FILLER_20_14
*746 FILLER_20_147
*747 FILLER_20_155
*748 FILLER_20_174
*749 FILLER_20_177
*750 FILLER_20_2
*751 FILLER_20_227
*752 FILLER_20_23
*753 FILLER_20_243
*754 FILLER_20_247
*755 FILLER_20_302
*756 FILLER_20_31
*757 FILLER_20_310
*758 FILLER_20_314
*759 FILLER_20_317
*760 FILLER_20_333
*761 FILLER_20_341
*762 FILLER_20_37
*763 FILLER_20_41
*764 FILLER_20_58
*765 FILLER_20_90
*766 FILLER_21_100
*767 FILLER_21_104
*768 FILLER_21_127
*769 FILLER_21_135
*770 FILLER_21_139
*771 FILLER_21_142
*772 FILLER_21_193
*773 FILLER_21_195
*774 FILLER_21_212
*775 FILLER_21_247
*776 FILLER_21_255
*777 FILLER_21_277
*778 FILLER_21_279
*779 FILLER_21_282
*780 FILLER_21_314
*781 FILLER_21_330
*782 FILLER_21_338
*783 FILLER_21_342
*784 FILLER_21_76
*785 FILLER_21_92
*786 FILLER_22_121
*787 FILLER_22_137
*788 FILLER_22_192
*789 FILLER_22_2
*790 FILLER_22_227
*791 FILLER_22_243
*792 FILLER_22_281
*793 FILLER_22_313
*794 FILLER_22_317
*795 FILLER_22_333
*796 FILLER_22_34
*797 FILLER_22_341
*798 FILLER_22_51
*799 FILLER_22_71
*800 FILLER_22_87
*801 FILLER_22_91
*802 FILLER_23_137
*803 FILLER_23_139
*804 FILLER_23_142
*805 FILLER_23_152
*806 FILLER_23_160
*807 FILLER_23_164
*808 FILLER_23_199
*809 FILLER_23_207
*810 FILLER_23_209
*811 FILLER_23_212
*812 FILLER_23_216
*813 FILLER_23_232
*814 FILLER_23_240
*815 FILLER_23_244
*816 FILLER_23_246
*817 FILLER_23_273
*818 FILLER_23_277
*819 FILLER_23_279
*820 FILLER_23_297
*821 FILLER_23_329
*822 FILLER_23_337
*823 FILLER_23_341
*824 FILLER_23_44
*825 FILLER_23_48
*826 FILLER_23_50
*827 FILLER_23_68
*828 FILLER_23_72
*829 FILLER_24_10
*830 FILLER_24_107
*831 FILLER_24_14
*832 FILLER_24_145
*833 FILLER_24_153
*834 FILLER_24_157
*835 FILLER_24_173
*836 FILLER_24_177
*837 FILLER_24_185
*838 FILLER_24_187
*839 FILLER_24_2
*840 FILLER_24_22
*841 FILLER_24_222
*842 FILLER_24_238
*843 FILLER_24_242
*844 FILLER_24_244
*845 FILLER_24_247
*846 FILLER_24_26
*847 FILLER_24_263
*848 FILLER_24_267
*849 FILLER_24_269
*850 FILLER_24_28
*851 FILLER_24_306
*852 FILLER_24_314
*853 FILLER_24_317
*854 FILLER_24_33
*855 FILLER_24_333
*856 FILLER_24_341
*857 FILLER_24_37
*858 FILLER_24_39
*859 FILLER_24_44
*860 FILLER_24_64
*861 FILLER_24_66
*862 FILLER_24_71
*863 FILLER_24_87
*864 FILLER_24_94
*865 FILLER_24_96
*866 FILLER_25_123
*867 FILLER_25_131
*868 FILLER_25_193
*869 FILLER_25_2
*870 FILLER_25_212
*871 FILLER_25_216
*872 FILLER_25_232
*873 FILLER_25_236
*874 FILLER_25_253
*875 FILLER_25_261
*876 FILLER_25_277
*877 FILLER_25_279
*878 FILLER_25_282
*879 FILLER_25_314
*880 FILLER_25_330
*881 FILLER_25_338
*882 FILLER_25_342
*883 FILLER_25_50
*884 FILLER_25_62
*885 FILLER_25_80
*886 FILLER_25_88
*887 FILLER_26_10
*888 FILLER_26_120
*889 FILLER_26_128
*890 FILLER_26_138
*891 FILLER_26_170
*892 FILLER_26_174
*893 FILLER_26_177
*894 FILLER_26_2
*895 FILLER_26_247
*896 FILLER_26_255
*897 FILLER_26_290
*898 FILLER_26_306
*899 FILLER_26_314
*900 FILLER_26_317
*901 FILLER_26_333
*902 FILLER_26_34
*903 FILLER_26_341
*904 FILLER_26_37
*905 FILLER_26_41
*906 FILLER_26_43
*907 FILLER_26_92
*908 FILLER_26_96
*909 FILLER_27_104
*910 FILLER_27_142
*911 FILLER_27_192
*912 FILLER_27_208
*913 FILLER_27_212
*914 FILLER_27_220
*915 FILLER_27_222
*916 FILLER_27_267
*917 FILLER_27_275
*918 FILLER_27_279
*919 FILLER_27_282
*920 FILLER_27_314
*921 FILLER_27_330
*922 FILLER_27_338
*923 FILLER_27_342
*924 FILLER_27_80
*925 FILLER_27_96
*926 FILLER_28_107
*927 FILLER_28_115
*928 FILLER_28_189
*929 FILLER_28_2
*930 FILLER_28_224
*931 FILLER_28_240
*932 FILLER_28_244
*933 FILLER_28_247
*934 FILLER_28_311
*935 FILLER_28_317
*936 FILLER_28_333
*937 FILLER_28_34
*938 FILLER_28_341
*939 FILLER_28_37
*940 FILLER_28_53
*941 FILLER_28_57
*942 FILLER_28_59
*943 FILLER_28_68
*944 FILLER_28_70
*945 FILLER_29_2
*946 FILLER_29_212
*947 FILLER_29_228
*948 FILLER_29_242
*949 FILLER_29_274
*950 FILLER_29_278
*951 FILLER_29_282
*952 FILLER_29_314
*953 FILLER_29_330
*954 FILLER_29_338
*955 FILLER_29_342
*956 FILLER_29_66
*957 FILLER_29_72
*958 FILLER_29_88
*959 FILLER_2_101
*960 FILLER_2_122
*961 FILLER_2_129
*962 FILLER_2_133
*963 FILLER_2_171
*964 FILLER_2_183
*965 FILLER_2_215
*966 FILLER_2_231
*967 FILLER_2_239
*968 FILLER_2_243
*969 FILLER_2_247
*970 FILLER_2_311
*971 FILLER_2_317
*972 FILLER_2_33
*973 FILLER_2_333
*974 FILLER_2_341
*975 FILLER_2_61
*976 FILLER_2_72
*977 FILLER_2_76
*978 FILLER_30_107
*979 FILLER_30_117
*980 FILLER_30_185
*981 FILLER_30_2
*982 FILLER_30_211
*983 FILLER_30_243
*984 FILLER_30_247
*985 FILLER_30_311
*986 FILLER_30_317
*987 FILLER_30_333
*988 FILLER_30_34
*989 FILLER_30_341
*990 FILLER_30_37
*991 FILLER_30_69
*992 FILLER_31_113
*993 FILLER_31_129
*994 FILLER_31_131
*995 FILLER_31_138
*996 FILLER_31_2
*997 FILLER_31_212
*998 FILLER_31_276
*999 FILLER_31_282
*1000 FILLER_31_314
*1001 FILLER_31_330
*1002 FILLER_31_338
*1003 FILLER_31_342
*1004 FILLER_31_66
*1005 FILLER_31_72
*1006 FILLER_31_74
*1007 FILLER_32_101
*1008 FILLER_32_104
*1009 FILLER_32_138
*1010 FILLER_32_148
*1011 FILLER_32_150
*1012 FILLER_32_168
*1013 FILLER_32_197
*1014 FILLER_32_2
*1015 FILLER_32_201
*1016 FILLER_32_203
*1017 FILLER_32_206
*1018 FILLER_32_240
*1019 FILLER_32_274
*1020 FILLER_32_308
*1021 FILLER_32_342
*1022 FILLER_32_36
*1023 FILLER_32_70
*1024 FILLER_32_78
*1025 FILLER_32_84
*1026 FILLER_32_89
*1027 FILLER_32_97
*1028 FILLER_3_119
*1029 FILLER_3_138
*1030 FILLER_3_142
*1031 FILLER_3_164
*1032 FILLER_3_166
*1033 FILLER_3_18
*1034 FILLER_3_187
*1035 FILLER_3_2
*1036 FILLER_3_203
*1037 FILLER_3_207
*1038 FILLER_3_209
*1039 FILLER_3_212
*1040 FILLER_3_276
*1041 FILLER_3_282
*1042 FILLER_3_314
*1043 FILLER_3_330
*1044 FILLER_3_338
*1045 FILLER_3_342
*1046 FILLER_3_47
*1047 FILLER_3_54
*1048 FILLER_3_58
*1049 FILLER_3_60
*1050 FILLER_3_65
*1051 FILLER_3_69
*1052 FILLER_4_10
*1053 FILLER_4_107
*1054 FILLER_4_116
*1055 FILLER_4_124
*1056 FILLER_4_126
*1057 FILLER_4_14
*1058 FILLER_4_16
*1059 FILLER_4_164
*1060 FILLER_4_172
*1061 FILLER_4_174
*1062 FILLER_4_2
*1063 FILLER_4_206
*1064 FILLER_4_238
*1065 FILLER_4_242
*1066 FILLER_4_244
*1067 FILLER_4_247
*1068 FILLER_4_311
*1069 FILLER_4_317
*1070 FILLER_4_333
*1071 FILLER_4_341
*1072 FILLER_4_58
*1073 FILLER_5_104
*1074 FILLER_5_120
*1075 FILLER_5_128
*1076 FILLER_5_142
*1077 FILLER_5_152
*1078 FILLER_5_159
*1079 FILLER_5_163
*1080 FILLER_5_193
*1081 FILLER_5_209
*1082 FILLER_5_216
*1083 FILLER_5_282
*1084 FILLER_5_298
*1085 FILLER_5_31
*1086 FILLER_5_322
*1087 FILLER_5_330
*1088 FILLER_5_334
*1089 FILLER_5_336
*1090 FILLER_5_56
*1091 FILLER_5_64
*1092 FILLER_5_68
*1093 FILLER_5_72
*1094 FILLER_6_117
*1095 FILLER_6_133
*1096 FILLER_6_137
*1097 FILLER_6_139
*1098 FILLER_6_148
*1099 FILLER_6_164
*1100 FILLER_6_172
*1101 FILLER_6_174
*1102 FILLER_6_177
*1103 FILLER_6_181
*1104 FILLER_6_187
*1105 FILLER_6_195
*1106 FILLER_6_199
*1107 FILLER_6_2
*1108 FILLER_6_201
*1109 FILLER_6_231
*1110 FILLER_6_239
*1111 FILLER_6_243
*1112 FILLER_6_247
*1113 FILLER_6_279
*1114 FILLER_6_283
*1115 FILLER_6_285
*1116 FILLER_6_325
*1117 FILLER_6_341
*1118 FILLER_6_37
*1119 FILLER_6_53
*1120 FILLER_6_57
*1121 FILLER_6_66
*1122 FILLER_6_82
*1123 FILLER_6_90
*1124 FILLER_6_96
*1125 FILLER_6_98
*1126 FILLER_7_129
*1127 FILLER_7_133
*1128 FILLER_7_154
*1129 FILLER_7_196
*1130 FILLER_7_204
*1131 FILLER_7_208
*1132 FILLER_7_221
*1133 FILLER_7_237
*1134 FILLER_7_276
*1135 FILLER_7_311
*1136 FILLER_7_40
*1137 FILLER_7_44
*1138 FILLER_7_46
*1139 FILLER_7_8
*1140 FILLER_7_80
*1141 FILLER_8_101
*1142 FILLER_8_133
*1143 FILLER_8_142
*1144 FILLER_8_144
*1145 FILLER_8_152
*1146 FILLER_8_167
*1147 FILLER_8_18
*1148 FILLER_8_190
*1149 FILLER_8_206
*1150 FILLER_8_239
*1151 FILLER_8_243
*1152 FILLER_8_276
*1153 FILLER_8_284
*1154 FILLER_8_30
*1155 FILLER_8_308
*1156 FILLER_8_333
*1157 FILLER_8_34
*1158 FILLER_8_341
*1159 FILLER_8_82
*1160 FILLER_8_90
*1161 FILLER_8_94
*1162 FILLER_9_105
*1163 FILLER_9_109
*1164 FILLER_9_116
*1165 FILLER_9_120
*1166 FILLER_9_122
*1167 FILLER_9_135
*1168 FILLER_9_139
*1169 FILLER_9_142
*1170 FILLER_9_161
*1171 FILLER_9_193
*1172 FILLER_9_201
*1173 FILLER_9_205
*1174 FILLER_9_241
*1175 FILLER_9_250
*1176 FILLER_9_282
*1177 FILLER_9_290
*1178 FILLER_9_294
*1179 FILLER_9_36
*1180 FILLER_9_44
*1181 FILLER_9_69
*1182 FILLER_9_77
*1183 FILLER_9_81
*1184 PHY_EDGE_ROW_0_Left_33
*1185 PHY_EDGE_ROW_0_Right_0
*1186 PHY_EDGE_ROW_10_Left_43
*1187 PHY_EDGE_ROW_10_Right_10
*1188 PHY_EDGE_ROW_11_Left_44
*1189 PHY_EDGE_ROW_11_Right_11
*1190 PHY_EDGE_ROW_12_Left_45
*1191 PHY_EDGE_ROW_12_Right_12
*1192 PHY_EDGE_ROW_13_Left_46
*1193 PHY_EDGE_ROW_13_Right_13
*1194 PHY_EDGE_ROW_14_Left_47
*1195 PHY_EDGE_ROW_14_Right_14
*1196 PHY_EDGE_ROW_15_Left_48
*1197 PHY_EDGE_ROW_15_Right_15
*1198 PHY_EDGE_ROW_16_Left_49
*1199 PHY_EDGE_ROW_16_Right_16
*1200 PHY_EDGE_ROW_17_Left_50
*1201 PHY_EDGE_ROW_17_Right_17
*1202 PHY_EDGE_ROW_18_Left_51
*1203 PHY_EDGE_ROW_18_Right_18
*1204 PHY_EDGE_ROW_19_Left_52
*1205 PHY_EDGE_ROW_19_Right_19
*1206 PHY_EDGE_ROW_1_Left_34
*1207 PHY_EDGE_ROW_1_Right_1
*1208 PHY_EDGE_ROW_20_Left_53
*1209 PHY_EDGE_ROW_20_Right_20
*1210 PHY_EDGE_ROW_21_Left_54
*1211 PHY_EDGE_ROW_21_Right_21
*1212 PHY_EDGE_ROW_22_Left_55
*1213 PHY_EDGE_ROW_22_Right_22
*1214 PHY_EDGE_ROW_23_Left_56
*1215 PHY_EDGE_ROW_23_Right_23
*1216 PHY_EDGE_ROW_24_Left_57
*1217 PHY_EDGE_ROW_24_Right_24
*1218 PHY_EDGE_ROW_25_Left_58
*1219 PHY_EDGE_ROW_25_Right_25
*1220 PHY_EDGE_ROW_26_Left_59
*1221 PHY_EDGE_ROW_26_Right_26
*1222 PHY_EDGE_ROW_27_Left_60
*1223 PHY_EDGE_ROW_27_Right_27
*1224 PHY_EDGE_ROW_28_Left_61
*1225 PHY_EDGE_ROW_28_Right_28
*1226 PHY_EDGE_ROW_29_Left_62
*1227 PHY_EDGE_ROW_29_Right_29
*1228 PHY_EDGE_ROW_2_Left_35
*1229 PHY_EDGE_ROW_2_Right_2
*1230 PHY_EDGE_ROW_30_Left_63
*1231 PHY_EDGE_ROW_30_Right_30
*1232 PHY_EDGE_ROW_31_Left_64
*1233 PHY_EDGE_ROW_31_Right_31
*1234 PHY_EDGE_ROW_32_Left_65
*1235 PHY_EDGE_ROW_32_Right_32
*1236 PHY_EDGE_ROW_3_Left_36
*1237 PHY_EDGE_ROW_3_Right_3
*1238 PHY_EDGE_ROW_4_Left_37
*1239 PHY_EDGE_ROW_4_Right_4
*1240 PHY_EDGE_ROW_5_Left_38
*1241 PHY_EDGE_ROW_5_Right_5
*1242 PHY_EDGE_ROW_6_Left_39
*1243 PHY_EDGE_ROW_6_Right_6
*1244 PHY_EDGE_ROW_7_Left_40
*1245 PHY_EDGE_ROW_7_Right_7
*1246 PHY_EDGE_ROW_8_Left_41
*1247 PHY_EDGE_ROW_8_Right_8
*1248 PHY_EDGE_ROW_9_Left_42
*1249 PHY_EDGE_ROW_9_Right_9
*1250 TAP_TAPCELL_ROW_0_66
*1251 TAP_TAPCELL_ROW_0_67
*1252 TAP_TAPCELL_ROW_0_68
*1253 TAP_TAPCELL_ROW_0_69
*1254 TAP_TAPCELL_ROW_0_70
*1255 TAP_TAPCELL_ROW_0_71
*1256 TAP_TAPCELL_ROW_0_72
*1257 TAP_TAPCELL_ROW_0_73
*1258 TAP_TAPCELL_ROW_0_74
*1259 TAP_TAPCELL_ROW_0_75
*1260 TAP_TAPCELL_ROW_10_116
*1261 TAP_TAPCELL_ROW_10_117
*1262 TAP_TAPCELL_ROW_10_118
*1263 TAP_TAPCELL_ROW_10_119
*1264 TAP_TAPCELL_ROW_10_120
*1265 TAP_TAPCELL_ROW_11_121
*1266 TAP_TAPCELL_ROW_11_122
*1267 TAP_TAPCELL_ROW_11_123
*1268 TAP_TAPCELL_ROW_11_124
*1269 TAP_TAPCELL_ROW_12_125
*1270 TAP_TAPCELL_ROW_12_126
*1271 TAP_TAPCELL_ROW_12_127
*1272 TAP_TAPCELL_ROW_12_128
*1273 TAP_TAPCELL_ROW_12_129
*1274 TAP_TAPCELL_ROW_13_130
*1275 TAP_TAPCELL_ROW_13_131
*1276 TAP_TAPCELL_ROW_13_132
*1277 TAP_TAPCELL_ROW_13_133
*1278 TAP_TAPCELL_ROW_14_134
*1279 TAP_TAPCELL_ROW_14_135
*1280 TAP_TAPCELL_ROW_14_136
*1281 TAP_TAPCELL_ROW_14_137
*1282 TAP_TAPCELL_ROW_14_138
*1283 TAP_TAPCELL_ROW_15_139
*1284 TAP_TAPCELL_ROW_15_140
*1285 TAP_TAPCELL_ROW_15_141
*1286 TAP_TAPCELL_ROW_15_142
*1287 TAP_TAPCELL_ROW_16_143
*1288 TAP_TAPCELL_ROW_16_144
*1289 TAP_TAPCELL_ROW_16_145
*1290 TAP_TAPCELL_ROW_16_146
*1291 TAP_TAPCELL_ROW_16_147
*1292 TAP_TAPCELL_ROW_17_148
*1293 TAP_TAPCELL_ROW_17_149
*1294 TAP_TAPCELL_ROW_17_150
*1295 TAP_TAPCELL_ROW_17_151
*1296 TAP_TAPCELL_ROW_18_152
*1297 TAP_TAPCELL_ROW_18_153
*1298 TAP_TAPCELL_ROW_18_154
*1299 TAP_TAPCELL_ROW_18_155
*1300 TAP_TAPCELL_ROW_18_156
*1301 TAP_TAPCELL_ROW_19_157
*1302 TAP_TAPCELL_ROW_19_158
*1303 TAP_TAPCELL_ROW_19_159
*1304 TAP_TAPCELL_ROW_19_160
*1305 TAP_TAPCELL_ROW_1_76
*1306 TAP_TAPCELL_ROW_1_77
*1307 TAP_TAPCELL_ROW_1_78
*1308 TAP_TAPCELL_ROW_1_79
*1309 TAP_TAPCELL_ROW_20_161
*1310 TAP_TAPCELL_ROW_20_162
*1311 TAP_TAPCELL_ROW_20_163
*1312 TAP_TAPCELL_ROW_20_164
*1313 TAP_TAPCELL_ROW_20_165
*1314 TAP_TAPCELL_ROW_21_166
*1315 TAP_TAPCELL_ROW_21_167
*1316 TAP_TAPCELL_ROW_21_168
*1317 TAP_TAPCELL_ROW_21_169
*1318 TAP_TAPCELL_ROW_22_170
*1319 TAP_TAPCELL_ROW_22_171
*1320 TAP_TAPCELL_ROW_22_172
*1321 TAP_TAPCELL_ROW_22_173
*1322 TAP_TAPCELL_ROW_22_174
*1323 TAP_TAPCELL_ROW_23_175
*1324 TAP_TAPCELL_ROW_23_176
*1325 TAP_TAPCELL_ROW_23_177
*1326 TAP_TAPCELL_ROW_23_178
*1327 TAP_TAPCELL_ROW_24_179
*1328 TAP_TAPCELL_ROW_24_180
*1329 TAP_TAPCELL_ROW_24_181
*1330 TAP_TAPCELL_ROW_24_182
*1331 TAP_TAPCELL_ROW_24_183
*1332 TAP_TAPCELL_ROW_25_184
*1333 TAP_TAPCELL_ROW_25_185
*1334 TAP_TAPCELL_ROW_25_186
*1335 TAP_TAPCELL_ROW_25_187
*1336 TAP_TAPCELL_ROW_26_188
*1337 TAP_TAPCELL_ROW_26_189
*1338 TAP_TAPCELL_ROW_26_190
*1339 TAP_TAPCELL_ROW_26_191
*1340 TAP_TAPCELL_ROW_26_192
*1341 TAP_TAPCELL_ROW_27_193
*1342 TAP_TAPCELL_ROW_27_194
*1343 TAP_TAPCELL_ROW_27_195
*1344 TAP_TAPCELL_ROW_27_196
*1345 TAP_TAPCELL_ROW_28_197
*1346 TAP_TAPCELL_ROW_28_198
*1347 TAP_TAPCELL_ROW_28_199
*1348 TAP_TAPCELL_ROW_28_200
*1349 TAP_TAPCELL_ROW_28_201
*1350 TAP_TAPCELL_ROW_29_202
*1351 TAP_TAPCELL_ROW_29_203
*1352 TAP_TAPCELL_ROW_29_204
*1353 TAP_TAPCELL_ROW_29_205
*1354 TAP_TAPCELL_ROW_2_80
*1355 TAP_TAPCELL_ROW_2_81
*1356 TAP_TAPCELL_ROW_2_82
*1357 TAP_TAPCELL_ROW_2_83
*1358 TAP_TAPCELL_ROW_2_84
*1359 TAP_TAPCELL_ROW_30_206
*1360 TAP_TAPCELL_ROW_30_207
*1361 TAP_TAPCELL_ROW_30_208
*1362 TAP_TAPCELL_ROW_30_209
*1363 TAP_TAPCELL_ROW_30_210
*1364 TAP_TAPCELL_ROW_31_211
*1365 TAP_TAPCELL_ROW_31_212
*1366 TAP_TAPCELL_ROW_31_213
*1367 TAP_TAPCELL_ROW_31_214
*1368 TAP_TAPCELL_ROW_32_215
*1369 TAP_TAPCELL_ROW_32_216
*1370 TAP_TAPCELL_ROW_32_217
*1371 TAP_TAPCELL_ROW_32_218
*1372 TAP_TAPCELL_ROW_32_219
*1373 TAP_TAPCELL_ROW_32_220
*1374 TAP_TAPCELL_ROW_32_221
*1375 TAP_TAPCELL_ROW_32_222
*1376 TAP_TAPCELL_ROW_32_223
*1377 TAP_TAPCELL_ROW_32_224
*1378 TAP_TAPCELL_ROW_3_85
*1379 TAP_TAPCELL_ROW_3_86
*1380 TAP_TAPCELL_ROW_3_87
*1381 TAP_TAPCELL_ROW_3_88
*1382 TAP_TAPCELL_ROW_4_89
*1383 TAP_TAPCELL_ROW_4_90
*1384 TAP_TAPCELL_ROW_4_91
*1385 TAP_TAPCELL_ROW_4_92
*1386 TAP_TAPCELL_ROW_4_93
*1387 TAP_TAPCELL_ROW_5_94
*1388 TAP_TAPCELL_ROW_5_95
*1389 TAP_TAPCELL_ROW_5_96
*1390 TAP_TAPCELL_ROW_5_97
*1391 TAP_TAPCELL_ROW_6_100
*1392 TAP_TAPCELL_ROW_6_101
*1393 TAP_TAPCELL_ROW_6_102
*1394 TAP_TAPCELL_ROW_6_98
*1395 TAP_TAPCELL_ROW_6_99
*1396 TAP_TAPCELL_ROW_7_103
*1397 TAP_TAPCELL_ROW_7_104
*1398 TAP_TAPCELL_ROW_7_105
*1399 TAP_TAPCELL_ROW_7_106
*1400 TAP_TAPCELL_ROW_8_107
*1401 TAP_TAPCELL_ROW_8_108
*1402 TAP_TAPCELL_ROW_8_109
*1403 TAP_TAPCELL_ROW_8_110
*1404 TAP_TAPCELL_ROW_8_111
*1405 TAP_TAPCELL_ROW_9_112
*1406 TAP_TAPCELL_ROW_9_113
*1407 TAP_TAPCELL_ROW_9_114
*1408 TAP_TAPCELL_ROW_9_115
*1409 _314_
*1410 _315_
*1411 _316_
*1412 _317_
*1413 _318_
*1414 _319_
*1415 _320_
*1416 _321_
*1417 _322_
*1418 _323_
*1419 _324_
*1420 _325_
*1421 _326_
*1422 _327_
*1423 _328_
*1424 _329_
*1425 _330_
*1426 _331_
*1427 _332_
*1428 _333_
*1429 _334_
*1430 _335_
*1431 _336_
*1432 _337_
*1433 _338_
*1434 _339_
*1435 _340_
*1436 _341_
*1437 _342_
*1438 _343_
*1439 _344_
*1440 _345_
*1441 _346_
*1442 _347_
*1443 _348_
*1444 _349_
*1445 _350_
*1446 _351_
*1447 _352_
*1448 _353_
*1449 _354_
*1450 _355_
*1451 _356_
*1452 _357_
*1453 _358_
*1454 _359_
*1455 _360_
*1456 _361_
*1457 _362_
*1458 _363_
*1459 _364_
*1460 _365_
*1461 _366_
*1462 _367_
*1463 _368_
*1464 _369_
*1465 _370_
*1466 _371_
*1467 _372_
*1468 _373_
*1469 _374_
*1470 _375_
*1471 _376_
*1472 _377_
*1473 _378_
*1474 _379_
*1475 _380_
*1476 _381_
*1477 _382_
*1478 _383_
*1479 _384_
*1480 _385_
*1481 _386_
*1482 _387_
*1483 _388_
*1484 _389_
*1485 _390_
*1486 _391_
*1487 _392_
*1488 _393_
*1489 _394_
*1490 _395_
*1491 _396_
*1492 _397_
*1493 _398_
*1494 _399_
*1495 _400_
*1496 _401_
*1497 _402_
*1498 _403_
*1499 _404_
*1500 _405_
*1501 _406_
*1502 _407_
*1503 _408_
*1504 _409_
*1505 _410_
*1506 _411_
*1507 _412_
*1508 _413_
*1509 _414_
*1510 _415_
*1511 _416_
*1512 _417_
*1513 _418_
*1514 _419_
*1515 _420_
*1516 _421_
*1517 _422_
*1518 _423_
*1519 _424_
*1520 _425_
*1521 _426_
*1522 _427_
*1523 _428_
*1524 _429_
*1525 _430_
*1526 _431_
*1527 _432_
*1528 _433_
*1529 _434_
*1530 _435_
*1531 _436_
*1532 _437_
*1533 _438_
*1534 _439_
*1535 _440_
*1536 _441_
*1537 _442_
*1538 _443_
*1539 _444_
*1540 _445_
*1541 _446_
*1542 _447_
*1543 _448_
*1544 _449_
*1545 _450_
*1546 _451_
*1547 _452_
*1548 _453_
*1549 _454_
*1550 _455_
*1551 _456_
*1552 _457_
*1553 _458_
*1554 _459_
*1555 _460_
*1556 _461_
*1557 _462_
*1558 _463_
*1559 _464_
*1560 _465_
*1561 _466_
*1562 _467_
*1563 _468_
*1564 _469_
*1565 _470_
*1566 _471_
*1567 _472_
*1568 _473_
*1569 _474_
*1570 _475_
*1571 _476_
*1572 _477_
*1573 _478_
*1574 _479_
*1575 _480_
*1576 _481_
*1577 _482_
*1578 _483_
*1579 _484_
*1580 _485_
*1581 _486_
*1582 _487_
*1583 _488_
*1584 _489_
*1585 _490_
*1586 _491_
*1587 _492_
*1588 _493_
*1589 _494_
*1590 _495_
*1591 _496_
*1592 _497_
*1593 _498_
*1594 _499_
*1595 _500_
*1596 _501_
*1597 _502_
*1598 _503_
*1599 _504_
*1600 _505_
*1601 _506_
*1602 _507_
*1603 _508_
*1604 _509_
*1605 _510_
*1606 _511_
*1607 _512_
*1608 _513_
*1609 _514_
*1610 _515_
*1611 _516_
*1612 _517_
*1613 _518_
*1614 _519_
*1615 _520_
*1616 _521_
*1617 _522_
*1618 _523_
*1619 _524_
*1620 _525_