* NGSPICE file created from tt_um_counter_top.ext - technology: sky130A

* Black-box entry subcircuit for sky130_fd_sc_hd__decap_3 abstract view
.subckt sky130_fd_sc_hd__decap_3 VGND VNB VPB VPWR
.ends

* Black-box entry subcircuit for sky130_fd_sc_hd__tapvpwrvgnd_1 abstract view
.subckt sky130_fd_sc_hd__tapvpwrvgnd_1 VGND VPWR
.ends

* Black-box entry subcircuit for sky130_fd_sc_hd__fill_1 abstract view
.subckt sky130_fd_sc_hd__fill_1 VGND VNB VPB VPWR
.ends

* Black-box entry subcircuit for sky130_fd_sc_hd__fill_2 abstract view
.subckt sky130_fd_sc_hd__fill_2 VGND VNB VPB VPWR
.ends

* Black-box entry subcircuit for sky130_fd_sc_hd__and4_1 abstract view
.subckt sky130_fd_sc_hd__and4_1 A B C D VGND VNB VPB VPWR X
.ends

* Black-box entry subcircuit for sky130_fd_sc_hd__dfxtp_4 abstract view
.subckt sky130_fd_sc_hd__dfxtp_4 CLK D VGND VNB VPB VPWR Q
.ends

* Black-box entry subcircuit for sky130_fd_sc_hd__clkbuf_4 abstract view
.subckt sky130_fd_sc_hd__clkbuf_4 A VGND VNB VPB VPWR X
.ends

* Black-box entry subcircuit for sky130_fd_sc_hd__or2_1 abstract view
.subckt sky130_fd_sc_hd__or2_1 A B VGND VNB VPB VPWR X
.ends

* Black-box entry subcircuit for sky130_fd_sc_hd__and3b_1 abstract view
.subckt sky130_fd_sc_hd__and3b_1 A_N B C VGND VNB VPB VPWR X
.ends

* Black-box entry subcircuit for sky130_fd_sc_hd__and3_1 abstract view
.subckt sky130_fd_sc_hd__and3_1 A B C VGND VNB VPB VPWR X
.ends

* Black-box entry subcircuit for sky130_fd_sc_hd__dfxtp_2 abstract view
.subckt sky130_fd_sc_hd__dfxtp_2 CLK D VGND VNB VPB VPWR Q
.ends

* Black-box entry subcircuit for sky130_fd_sc_hd__a21o_1 abstract view
.subckt sky130_fd_sc_hd__a21o_1 A1 A2 B1 VGND VNB VPB VPWR X
.ends

* Black-box entry subcircuit for sky130_fd_sc_hd__clkbuf_16 abstract view
.subckt sky130_fd_sc_hd__clkbuf_16 A VGND VNB VPB VPWR X
.ends

* Black-box entry subcircuit for sky130_fd_sc_hd__a21oi_1 abstract view
.subckt sky130_fd_sc_hd__a21oi_1 A1 A2 B1 VGND VNB VPB VPWR Y
.ends

* Black-box entry subcircuit for sky130_fd_sc_hd__o21ai_1 abstract view
.subckt sky130_fd_sc_hd__o21ai_1 A1 A2 B1 VGND VNB VPB VPWR Y
.ends

* Black-box entry subcircuit for sky130_fd_sc_hd__conb_1 abstract view
.subckt sky130_fd_sc_hd__conb_1 VGND VNB VPB VPWR HI LO
.ends

* Black-box entry subcircuit for sky130_fd_sc_hd__and4_2 abstract view
.subckt sky130_fd_sc_hd__and4_2 A B C D VGND VNB VPB VPWR X
.ends

* Black-box entry subcircuit for sky130_fd_sc_hd__a31o_1 abstract view
.subckt sky130_fd_sc_hd__a31o_1 A1 A2 A3 B1 VGND VNB VPB VPWR X
.ends

* Black-box entry subcircuit for sky130_fd_sc_hd__clkbuf_2 abstract view
.subckt sky130_fd_sc_hd__clkbuf_2 A VGND VNB VPB VPWR X
.ends

* Black-box entry subcircuit for sky130_fd_sc_hd__dlygate4sd3_1 abstract view
.subckt sky130_fd_sc_hd__dlygate4sd3_1 A VGND VNB VPB VPWR X
.ends

* Black-box entry subcircuit for sky130_fd_sc_hd__nand3_1 abstract view
.subckt sky130_fd_sc_hd__nand3_1 A B C VGND VNB VPB VPWR Y
.ends

* Black-box entry subcircuit for sky130_fd_sc_hd__and2b_1 abstract view
.subckt sky130_fd_sc_hd__and2b_1 A_N B VGND VNB VPB VPWR X
.ends

.subckt tt_um_counter_top VGND VPWR clk ena rst_n ui_in[0] ui_in[1] ui_in[2] ui_in[3]
+ ui_in[4] ui_in[5] ui_in[6] ui_in[7] uio_in[0] uio_in[1] uio_in[2] uio_in[3] uio_in[4]
+ uio_in[5] uio_in[6] uio_in[7] uio_oe[0] uio_oe[1] uio_oe[2] uio_oe[3] uio_oe[4]
+ uio_oe[5] uio_oe[6] uio_oe[7] uio_out[0] uio_out[1] uio_out[2] uio_out[3] uio_out[4]
+ uio_out[5] uio_out[6] uio_out[7] uo_out[0] uo_out[1] uo_out[2] uo_out[3] uo_out[4]
+ uo_out[5] uo_out[6] uo_out[7]
XFILLER_22_100 VGND VGND VPWR VPWR sky130_fd_sc_hd__decap_3
XFILLER_22_133 VGND VGND VPWR VPWR sky130_fd_sc_hd__decap_3
XFILLER_22_144 VGND VGND VPWR VPWR sky130_fd_sc_hd__decap_3
XTAP_TAPCELL_ROW_9_126 VGND VPWR sky130_fd_sc_hd__tapvpwrvgnd_1
XFILLER_13_111 VGND VGND VPWR VPWR sky130_fd_sc_hd__fill_1
XFILLER_13_122 VGND VGND VPWR VPWR sky130_fd_sc_hd__decap_3
XFILLER_26_41 VGND VGND VPWR VPWR sky130_fd_sc_hd__decap_3
XFILLER_26_74 VGND VGND VPWR VPWR sky130_fd_sc_hd__decap_3
XFILLER_26_85 VGND VGND VPWR VPWR sky130_fd_sc_hd__decap_3
XFILLER_13_155 VGND VGND VPWR VPWR sky130_fd_sc_hd__decap_3
XFILLER_13_199 VGND VGND VPWR VPWR sky130_fd_sc_hd__decap_3
XFILLER_9_137 VGND VGND VPWR VPWR sky130_fd_sc_hd__decap_3
XFILLER_3_45 VGND VGND VPWR VPWR sky130_fd_sc_hd__decap_3
XFILLER_3_12 VGND VGND VPWR VPWR sky130_fd_sc_hd__decap_3
XFILLER_3_78 VGND VGND VPWR VPWR sky130_fd_sc_hd__decap_3
XTAP_TAPCELL_ROW_14_150 VGND VPWR sky130_fd_sc_hd__tapvpwrvgnd_1
XFILLER_8_192 VGND VGND VPWR VPWR sky130_fd_sc_hd__decap_3
XTAP_TAPCELL_ROW_6_107 VGND VPWR sky130_fd_sc_hd__tapvpwrvgnd_1
XFILLER_27_214 VGND VGND VPWR VPWR sky130_fd_sc_hd__decap_3
XFILLER_27_225 VGND VGND VPWR VPWR sky130_fd_sc_hd__decap_3
XFILLER_27_258 VGND VGND VPWR VPWR sky130_fd_sc_hd__decap_3
XFILLER_10_103 VGND VGND VPWR VPWR sky130_fd_sc_hd__decap_3
XFILLER_10_136 VGND VGND VPWR VPWR sky130_fd_sc_hd__decap_3
XFILLER_10_147 VGND VGND VPWR VPWR sky130_fd_sc_hd__decap_3
XFILLER_12_21 VGND VGND VPWR VPWR sky130_fd_sc_hd__decap_3
XFILLER_12_32 VGND VGND VPWR VPWR sky130_fd_sc_hd__decap_3
XFILLER_6_118 VGND VGND VPWR VPWR sky130_fd_sc_hd__decap_3
XFILLER_12_65 VGND VGND VPWR VPWR sky130_fd_sc_hd__decap_3
XPHY_EDGE_ROW_0_Left_34 VGND VGND VPWR VPWR sky130_fd_sc_hd__decap_3
XTAP_TAPCELL_ROW_20_186 VGND VPWR sky130_fd_sc_hd__tapvpwrvgnd_1
XFILLER_2_324 VGND VGND VPWR VPWR sky130_fd_sc_hd__decap_3
XFILLER_18_203 VGND VGND VPWR VPWR sky130_fd_sc_hd__decap_3
XFILLER_18_236 VGND VGND VPWR VPWR sky130_fd_sc_hd__decap_3
XTAP_TAPCELL_ROW_28_231 VGND VPWR sky130_fd_sc_hd__tapvpwrvgnd_1
XFILLER_26_280 VGND VGND VPWR VPWR sky130_fd_sc_hd__decap_3
XFILLER_33_228 VGND VGND VPWR VPWR sky130_fd_sc_hd__decap_3
XFILLER_5_140 VGND VGND VPWR VPWR sky130_fd_sc_hd__decap_3
XFILLER_5_184 VGND VGND VPWR VPWR sky130_fd_sc_hd__decap_3
XFILLER_24_206 VGND VGND VPWR VPWR sky130_fd_sc_hd__decap_3
XFILLER_24_239 VGND VGND VPWR VPWR sky130_fd_sc_hd__decap_3
XFILLER_32_283 VGND VGND VPWR VPWR sky130_fd_sc_hd__decap_3
XFILLER_15_217 VGND VGND VPWR VPWR sky130_fd_sc_hd__decap_3
XFILLER_15_228 VGND VGND VPWR VPWR sky130_fd_sc_hd__decap_3
XFILLER_23_261 VGND VGND VPWR VPWR sky130_fd_sc_hd__decap_3
XTAP_TAPCELL_ROW_25_212 VGND VPWR sky130_fd_sc_hd__tapvpwrvgnd_1
XFILLER_30_209 VGND VGND VPWR VPWR sky130_fd_sc_hd__decap_3
XFILLER_23_42 VGND VGND VPWR VPWR sky130_fd_sc_hd__decap_3
XFILLER_23_75 VGND VGND VPWR VPWR sky130_fd_sc_hd__decap_3
XFILLER_2_121 VGND VGND VPWR VPWR sky130_fd_sc_hd__decap_3
XFILLER_2_187 VGND VGND VPWR VPWR sky130_fd_sc_hd__decap_3
XFILLER_0_24 VGND VGND VPWR VPWR sky130_fd_sc_hd__decap_3
XFILLER_0_35 VGND VGND VPWR VPWR sky130_fd_sc_hd__decap_3
XFILLER_0_57 VGND VGND VPWR VPWR sky130_fd_sc_hd__decap_3
XFILLER_17_9 VGND VGND VPWR VPWR sky130_fd_sc_hd__decap_3
XFILLER_14_283 VGND VGND VPWR VPWR sky130_fd_sc_hd__decap_3
XFILLER_9_33 VGND VGND VPWR VPWR sky130_fd_sc_hd__decap_3
XFILLER_9_66 VGND VGND VPWR VPWR sky130_fd_sc_hd__decap_3
XFILLER_9_99 VGND VGND VPWR VPWR sky130_fd_sc_hd__decap_3
XTAP_TAPCELL_ROW_31_248 VGND VPWR sky130_fd_sc_hd__tapvpwrvgnd_1
XFILLER_12_209 VGND VGND VPWR VPWR sky130_fd_sc_hd__decap_3
XFILLER_20_242 VGND VGND VPWR VPWR sky130_fd_sc_hd__decap_3
XFILLER_20_253 VGND VGND VPWR VPWR sky130_fd_sc_hd__decap_3
XFILLER_20_286 VGND VGND VPWR VPWR sky130_fd_sc_hd__decap_3
XFILLER_18_53 VGND VGND VPWR VPWR sky130_fd_sc_hd__decap_3
XFILLER_18_97 VGND VGND VPWR VPWR sky130_fd_sc_hd__decap_3
XFILLER_11_220 VGND VGND VPWR VPWR sky130_fd_sc_hd__decap_3
XFILLER_11_231 VGND VGND VPWR VPWR sky130_fd_sc_hd__decap_3
XFILLER_11_264 VGND VGND VPWR VPWR sky130_fd_sc_hd__decap_3
XFILLER_7_202 VGND VGND VPWR VPWR sky130_fd_sc_hd__decap_3
XFILLER_7_279 VGND VGND VPWR VPWR sky130_fd_sc_hd__fill_1
XFILLER_7_246 VGND VGND VPWR VPWR sky130_fd_sc_hd__decap_3
XFILLER_15_6 VGND VGND VPWR VPWR sky130_fd_sc_hd__decap_3
XFILLER_19_320 VGND VGND VPWR VPWR sky130_fd_sc_hd__decap_3
XFILLER_25_323 VGND VGND VPWR VPWR sky130_fd_sc_hd__decap_3
XFILLER_29_128 VGND VGND VPWR VPWR sky130_fd_sc_hd__decap_3
XFILLER_20_21 VGND VGND VPWR VPWR sky130_fd_sc_hd__decap_3
XFILLER_20_32 VGND VGND VPWR VPWR sky130_fd_sc_hd__decap_3
XFILLER_20_65 VGND VGND VPWR VPWR sky130_fd_sc_hd__decap_3
XFILLER_4_227 VGND VGND VPWR VPWR sky130_fd_sc_hd__decap_3
XFILLER_29_30 VGND VGND VPWR VPWR sky130_fd_sc_hd__decap_3
XFILLER_29_63 VGND VGND VPWR VPWR sky130_fd_sc_hd__decap_3
XFILLER_29_96 VGND VGND VPWR VPWR sky130_fd_sc_hd__decap_3
XFILLER_16_301 VGND VGND VPWR VPWR sky130_fd_sc_hd__decap_3
XFILLER_16_312 VGND VGND VPWR VPWR sky130_fd_sc_hd__decap_3
XFILLER_28_150 VGND VGND VPWR VPWR sky130_fd_sc_hd__decap_3
XFILLER_28_183 VGND VGND VPWR VPWR sky130_fd_sc_hd__decap_3
XFILLER_31_326 VGND VGND VPWR VPWR sky130_fd_sc_hd__decap_3
XFILLER_6_12 VGND VGND VPWR VPWR sky130_fd_sc_hd__decap_3
XFILLER_6_56 VGND VGND VPWR VPWR sky130_fd_sc_hd__decap_3
XFILLER_3_293 VGND VGND VPWR VPWR sky130_fd_sc_hd__decap_3
XFILLER_13_3 VGND VGND VPWR VPWR sky130_fd_sc_hd__decap_3
XFILLER_19_161 VGND VGND VPWR VPWR sky130_fd_sc_hd__decap_3
XFILLER_19_172 VGND VGND VPWR VPWR sky130_fd_sc_hd__decap_3
XFILLER_26_109 VGND VGND VPWR VPWR sky130_fd_sc_hd__decap_3
XFILLER_22_304 VGND VGND VPWR VPWR sky130_fd_sc_hd__decap_3
XFILLER_22_315 VGND VGND VPWR VPWR sky130_fd_sc_hd__decap_3
XFILLER_1_219 VGND VGND VPWR VPWR sky130_fd_sc_hd__decap_3
XFILLER_15_21 VGND VGND VPWR VPWR sky130_fd_sc_hd__decap_3
XFILLER_25_131 VGND VGND VPWR VPWR sky130_fd_sc_hd__decap_3
XFILLER_25_164 VGND VGND VPWR VPWR sky130_fd_sc_hd__decap_3
XFILLER_25_175 VGND VGND VPWR VPWR sky130_fd_sc_hd__decap_3
XFILLER_13_326 VGND VGND VPWR VPWR sky130_fd_sc_hd__decap_3
XFILLER_15_54 VGND VGND VPWR VPWR sky130_fd_sc_hd__fill_2
XFILLER_15_87 VGND VGND VPWR VPWR sky130_fd_sc_hd__decap_3
XFILLER_9_308 VGND VGND VPWR VPWR sky130_fd_sc_hd__decap_3
XFILLER_31_42 VGND VGND VPWR VPWR sky130_fd_sc_hd__decap_3
XFILLER_31_75 VGND VGND VPWR VPWR sky130_fd_sc_hd__decap_3
XFILLER_0_274 VGND VGND VPWR VPWR sky130_fd_sc_hd__decap_3
XFILLER_0_296 VGND VGND VPWR VPWR sky130_fd_sc_hd__decap_3
XFILLER_16_153 VGND VGND VPWR VPWR sky130_fd_sc_hd__decap_3
XFILLER_16_197 VGND VGND VPWR VPWR sky130_fd_sc_hd__decap_3
XFILLER_31_134 VGND VGND VPWR VPWR sky130_fd_sc_hd__decap_3
XFILLER_8_330 VGND VGND VPWR VPWR sky130_fd_sc_hd__fill_2
XFILLER_31_189 VGND VGND VPWR VPWR sky130_fd_sc_hd__decap_3
XFILLER_10_307 VGND VGND VPWR VPWR sky130_fd_sc_hd__fill_1
XFILLER_10_318 VGND VGND VPWR VPWR sky130_fd_sc_hd__decap_3
XFILLER_22_112 VGND VGND VPWR VPWR sky130_fd_sc_hd__decap_3
XFILLER_22_156 VGND VGND VPWR VPWR sky130_fd_sc_hd__fill_2
XFILLER_22_178 VGND VGND VPWR VPWR sky130_fd_sc_hd__decap_3
XTAP_TAPCELL_ROW_17_170 VGND VPWR sky130_fd_sc_hd__tapvpwrvgnd_1
XTAP_TAPCELL_ROW_9_127 VGND VPWR sky130_fd_sc_hd__tapvpwrvgnd_1
XFILLER_13_134 VGND VGND VPWR VPWR sky130_fd_sc_hd__decap_3
XFILLER_13_167 VGND VGND VPWR VPWR sky130_fd_sc_hd__fill_1
XFILLER_26_53 VGND VGND VPWR VPWR sky130_fd_sc_hd__decap_3
XFILLER_26_97 VGND VGND VPWR VPWR sky130_fd_sc_hd__decap_3
XFILLER_9_116 VGND VGND VPWR VPWR sky130_fd_sc_hd__decap_3
XFILLER_9_105 VGND VGND VPWR VPWR sky130_fd_sc_hd__decap_3
XFILLER_13_178 VGND VGND VPWR VPWR sky130_fd_sc_hd__decap_3
XFILLER_9_149 VGND VGND VPWR VPWR sky130_fd_sc_hd__decap_3
XFILLER_5_311 VGND VGND VPWR VPWR sky130_fd_sc_hd__decap_3
XFILLER_3_57 VGND VGND VPWR VPWR sky130_fd_sc_hd__decap_3
XFILLER_3_24 VGND VGND VPWR VPWR sky130_fd_sc_hd__decap_3
XTAP_TAPCELL_ROW_14_151 VGND VPWR sky130_fd_sc_hd__tapvpwrvgnd_1
XFILLER_8_171 VGND VGND VPWR VPWR sky130_fd_sc_hd__decap_3
XTAP_TAPCELL_ROW_6_108 VGND VPWR sky130_fd_sc_hd__tapvpwrvgnd_1
XFILLER_27_237 VGND VGND VPWR VPWR sky130_fd_sc_hd__decap_3
XFILLER_10_115 VGND VGND VPWR VPWR sky130_fd_sc_hd__decap_3
XFILLER_10_159 VGND VGND VPWR VPWR sky130_fd_sc_hd__decap_3
XFILLER_12_44 VGND VGND VPWR VPWR sky130_fd_sc_hd__decap_3
XFILLER_12_77 VGND VGND VPWR VPWR sky130_fd_sc_hd__decap_3
XFILLER_12_88 VGND VGND VPWR VPWR sky130_fd_sc_hd__decap_3
XTAP_TAPCELL_ROW_20_187 VGND VPWR sky130_fd_sc_hd__tapvpwrvgnd_1
XFILLER_18_215 VGND VGND VPWR VPWR sky130_fd_sc_hd__decap_3
XFILLER_18_248 VGND VGND VPWR VPWR sky130_fd_sc_hd__decap_3
XFILLER_18_259 VGND VGND VPWR VPWR sky130_fd_sc_hd__decap_3
XTAP_TAPCELL_ROW_28_232 VGND VPWR sky130_fd_sc_hd__tapvpwrvgnd_1
XFILLER_33_207 VGND VGND VPWR VPWR sky130_fd_sc_hd__decap_3
XFILLER_26_292 VGND VGND VPWR VPWR sky130_fd_sc_hd__decap_3
XFILLER_5_196 VGND VGND VPWR VPWR sky130_fd_sc_hd__decap_3
XFILLER_5_152 VGND VGND VPWR VPWR sky130_fd_sc_hd__decap_3
XFILLER_17_270 VGND VGND VPWR VPWR sky130_fd_sc_hd__decap_3
XFILLER_17_281 VGND VGND VPWR VPWR sky130_fd_sc_hd__decap_3
XFILLER_24_218 VGND VGND VPWR VPWR sky130_fd_sc_hd__decap_3
XFILLER_32_295 VGND VGND VPWR VPWR sky130_fd_sc_hd__decap_3
XFILLER_32_262 VGND VGND VPWR VPWR sky130_fd_sc_hd__decap_3
XFILLER_32_251 VGND VGND VPWR VPWR sky130_fd_sc_hd__fill_1
XPHY_EDGE_ROW_12_Right_12 VGND VGND VPWR VPWR sky130_fd_sc_hd__decap_3
XPHY_EDGE_ROW_21_Right_21 VGND VGND VPWR VPWR sky130_fd_sc_hd__decap_3
XFILLER_23_21 VGND VGND VPWR VPWR sky130_fd_sc_hd__decap_3
XFILLER_23_240 VGND VGND VPWR VPWR sky130_fd_sc_hd__decap_3
XFILLER_23_273 VGND VGND VPWR VPWR sky130_fd_sc_hd__decap_3
XFILLER_23_284 VGND VGND VPWR VPWR sky130_fd_sc_hd__decap_3
XFILLER_23_54 VGND VGND VPWR VPWR sky130_fd_sc_hd__fill_2
XTAP_TAPCELL_ROW_25_213 VGND VPWR sky130_fd_sc_hd__tapvpwrvgnd_1
XFILLER_23_87 VGND VGND VPWR VPWR sky130_fd_sc_hd__decap_3
XFILLER_2_100 VGND VGND VPWR VPWR sky130_fd_sc_hd__decap_3
XPHY_EDGE_ROW_30_Right_30 VGND VGND VPWR VPWR sky130_fd_sc_hd__decap_3
XFILLER_0_47 VGND VGND VPWR VPWR sky130_fd_sc_hd__decap_3
XFILLER_0_69 VGND VGND VPWR VPWR sky130_fd_sc_hd__decap_3
XFILLER_9_12 VGND VGND VPWR VPWR sky130_fd_sc_hd__decap_3
XFILLER_14_251 VGND VGND VPWR VPWR sky130_fd_sc_hd__fill_1
XFILLER_14_262 VGND VGND VPWR VPWR sky130_fd_sc_hd__decap_3
XFILLER_14_295 VGND VGND VPWR VPWR sky130_fd_sc_hd__decap_3
XFILLER_9_45 VGND VGND VPWR VPWR sky130_fd_sc_hd__decap_3
XFILLER_9_78 VGND VGND VPWR VPWR sky130_fd_sc_hd__decap_3
XFILLER_20_221 VGND VGND VPWR VPWR sky130_fd_sc_hd__decap_3
XFILLER_20_265 VGND VGND VPWR VPWR sky130_fd_sc_hd__decap_3
XFILLER_20_298 VGND VGND VPWR VPWR sky130_fd_sc_hd__decap_3
XFILLER_18_21 VGND VGND VPWR VPWR sky130_fd_sc_hd__decap_3
XFILLER_18_32 VGND VGND VPWR VPWR sky130_fd_sc_hd__decap_3
XFILLER_18_65 VGND VGND VPWR VPWR sky130_fd_sc_hd__decap_3
XFILLER_28_321 VGND VGND VPWR VPWR sky130_fd_sc_hd__decap_3
XFILLER_11_243 VGND VGND VPWR VPWR sky130_fd_sc_hd__decap_3
XFILLER_11_276 VGND VGND VPWR VPWR sky130_fd_sc_hd__decap_3
XFILLER_11_287 VGND VGND VPWR VPWR sky130_fd_sc_hd__decap_3
XFILLER_7_225 VGND VGND VPWR VPWR sky130_fd_sc_hd__decap_3
XFILLER_7_214 VGND VGND VPWR VPWR sky130_fd_sc_hd__decap_3
XFILLER_7_258 VGND VGND VPWR VPWR sky130_fd_sc_hd__decap_3
XFILLER_6_280 VGND VGND VPWR VPWR sky130_fd_sc_hd__decap_3
XFILLER_1_90 VGND VGND VPWR VPWR sky130_fd_sc_hd__decap_3
XFILLER_25_302 VGND VGND VPWR VPWR sky130_fd_sc_hd__decap_3
XFILLER_20_44 VGND VGND VPWR VPWR sky130_fd_sc_hd__decap_3
XFILLER_20_77 VGND VGND VPWR VPWR sky130_fd_sc_hd__decap_3
XFILLER_20_88 VGND VGND VPWR VPWR sky130_fd_sc_hd__decap_3
XFILLER_4_239 VGND VGND VPWR VPWR sky130_fd_sc_hd__decap_3
XFILLER_4_206 VGND VGND VPWR VPWR sky130_fd_sc_hd__decap_3
XFILLER_29_42 VGND VGND VPWR VPWR sky130_fd_sc_hd__decap_3
XFILLER_29_75 VGND VGND VPWR VPWR sky130_fd_sc_hd__decap_3
XFILLER_16_324 VGND VGND VPWR VPWR sky130_fd_sc_hd__decap_3
XFILLER_28_162 VGND VGND VPWR VPWR sky130_fd_sc_hd__decap_3
XFILLER_28_195 VGND VGND VPWR VPWR sky130_fd_sc_hd__fill_1
XFILLER_31_305 VGND VGND VPWR VPWR sky130_fd_sc_hd__decap_3
XFILLER_6_35 VGND VGND VPWR VPWR sky130_fd_sc_hd__decap_3
XFILLER_6_24 VGND VGND VPWR VPWR sky130_fd_sc_hd__decap_3
XFILLER_6_68 VGND VGND VPWR VPWR sky130_fd_sc_hd__decap_3
XFILLER_3_261 VGND VGND VPWR VPWR sky130_fd_sc_hd__decap_3
XFILLER_19_140 VGND VGND VPWR VPWR sky130_fd_sc_hd__decap_3
XFILLER_19_184 VGND VGND VPWR VPWR sky130_fd_sc_hd__decap_3
XFILLER_22_327 VGND VGND VPWR VPWR sky130_fd_sc_hd__decap_3
XPHY_EDGE_ROW_6_Right_6 VGND VGND VPWR VPWR sky130_fd_sc_hd__decap_3
XFILLER_13_305 VGND VGND VPWR VPWR sky130_fd_sc_hd__decap_3
XFILLER_15_33 VGND VGND VPWR VPWR sky130_fd_sc_hd__decap_3
XFILLER_15_66 VGND VGND VPWR VPWR sky130_fd_sc_hd__decap_3
XFILLER_25_143 VGND VGND VPWR VPWR sky130_fd_sc_hd__decap_3
XFILLER_25_187 VGND VGND VPWR VPWR sky130_fd_sc_hd__decap_3
XFILLER_15_99 VGND VGND VPWR VPWR sky130_fd_sc_hd__decap_3
XFILLER_31_54 VGND VGND VPWR VPWR sky130_fd_sc_hd__fill_2
XFILLER_31_21 VGND VGND VPWR VPWR sky130_fd_sc_hd__decap_3
XFILLER_0_220 VGND VGND VPWR VPWR sky130_fd_sc_hd__decap_3
XFILLER_0_231 VGND VGND VPWR VPWR sky130_fd_sc_hd__decap_3
XFILLER_0_253 VGND VGND VPWR VPWR sky130_fd_sc_hd__decap_3
XFILLER_31_87 VGND VGND VPWR VPWR sky130_fd_sc_hd__decap_3
XFILLER_16_121 VGND VGND VPWR VPWR sky130_fd_sc_hd__decap_3
XFILLER_16_176 VGND VGND VPWR VPWR sky130_fd_sc_hd__decap_3
XFILLER_31_146 VGND VGND VPWR VPWR sky130_fd_sc_hd__decap_3
XFILLER_31_113 VGND VGND VPWR VPWR sky130_fd_sc_hd__decap_3
XFILLER_31_102 VGND VGND VPWR VPWR sky130_fd_sc_hd__decap_3
XFILLER_22_124 VGND VGND VPWR VPWR sky130_fd_sc_hd__decap_3
XTAP_TAPCELL_ROW_17_171 VGND VPWR sky130_fd_sc_hd__tapvpwrvgnd_1
XFILLER_7_9 VGND VGND VPWR VPWR sky130_fd_sc_hd__decap_3
XFILLER_26_21 VGND VGND VPWR VPWR sky130_fd_sc_hd__decap_3
XFILLER_26_32 VGND VGND VPWR VPWR sky130_fd_sc_hd__decap_3
XFILLER_13_102 VGND VGND VPWR VPWR sky130_fd_sc_hd__decap_3
XFILLER_13_113 VGND VGND VPWR VPWR sky130_fd_sc_hd__decap_3
XFILLER_13_146 VGND VGND VPWR VPWR sky130_fd_sc_hd__decap_3
XFILLER_26_65 VGND VGND VPWR VPWR sky130_fd_sc_hd__decap_3
XFILLER_9_128 VGND VGND VPWR VPWR sky130_fd_sc_hd__decap_3
XFILLER_21_190 VGND VGND VPWR VPWR sky130_fd_sc_hd__decap_3
XFILLER_5_323 VGND VGND VPWR VPWR sky130_fd_sc_hd__decap_3
XFILLER_3_69 VGND VGND VPWR VPWR sky130_fd_sc_hd__decap_3
XFILLER_3_36 VGND VGND VPWR VPWR sky130_fd_sc_hd__decap_3
XFILLER_29_290 VGND VGND VPWR VPWR sky130_fd_sc_hd__decap_3
XTAP_TAPCELL_ROW_14_152 VGND VPWR sky130_fd_sc_hd__tapvpwrvgnd_1
XFILLER_8_150 VGND VGND VPWR VPWR sky130_fd_sc_hd__decap_3
XTAP_TAPCELL_ROW_6_109 VGND VPWR sky130_fd_sc_hd__tapvpwrvgnd_1
XTAP_TAPCELL_ROW_3_90 VGND VPWR sky130_fd_sc_hd__tapvpwrvgnd_1
XFILLER_8_183 VGND VGND VPWR VPWR sky130_fd_sc_hd__decap_3
XFILLER_27_205 VGND VGND VPWR VPWR sky130_fd_sc_hd__decap_3
XFILLER_27_249 VGND VGND VPWR VPWR sky130_fd_sc_hd__decap_3
XFILLER_10_127 VGND VGND VPWR VPWR sky130_fd_sc_hd__decap_3
XFILLER_12_12 VGND VGND VPWR VPWR sky130_fd_sc_hd__decap_3
XFILLER_12_56 VGND VGND VPWR VPWR sky130_fd_sc_hd__decap_3
XTAP_TAPCELL_ROW_20_188 VGND VPWR sky130_fd_sc_hd__tapvpwrvgnd_1
XFILLER_6_109 VGND VGND VPWR VPWR sky130_fd_sc_hd__decap_3
XFILLER_2_304 VGND VGND VPWR VPWR sky130_fd_sc_hd__decap_3
XFILLER_5_6 VGND VGND VPWR VPWR sky130_fd_sc_hd__decap_3
XFILLER_2_315 VGND VGND VPWR VPWR sky130_fd_sc_hd__decap_3
XFILLER_18_227 VGND VGND VPWR VPWR sky130_fd_sc_hd__decap_3
XFILLER_26_271 VGND VGND VPWR VPWR sky130_fd_sc_hd__decap_3
XFILLER_33_219 VGND VGND VPWR VPWR sky130_fd_sc_hd__decap_3
XFILLER_5_175 VGND VGND VPWR VPWR sky130_fd_sc_hd__decap_3
XFILLER_5_164 VGND VGND VPWR VPWR sky130_fd_sc_hd__decap_3
XFILLER_5_131 VGND VGND VPWR VPWR sky130_fd_sc_hd__decap_3
XFILLER_17_293 VGND VGND VPWR VPWR sky130_fd_sc_hd__decap_3
XFILLER_32_274 VGND VGND VPWR VPWR sky130_fd_sc_hd__decap_3
XFILLER_32_230 VGND VGND VPWR VPWR sky130_fd_sc_hd__decap_3
XFILLER_15_208 VGND VGND VPWR VPWR sky130_fd_sc_hd__decap_3
XTAP_TAPCELL_ROW_25_214 VGND VPWR sky130_fd_sc_hd__tapvpwrvgnd_1
XFILLER_23_252 VGND VGND VPWR VPWR sky130_fd_sc_hd__decap_3
XFILLER_23_296 VGND VGND VPWR VPWR sky130_fd_sc_hd__decap_3
XFILLER_23_33 VGND VGND VPWR VPWR sky130_fd_sc_hd__decap_3
XFILLER_23_66 VGND VGND VPWR VPWR sky130_fd_sc_hd__decap_3
XFILLER_23_99 VGND VGND VPWR VPWR sky130_fd_sc_hd__decap_3
XFILLER_2_112 VGND VGND VPWR VPWR sky130_fd_sc_hd__decap_3
XFILLER_3_3 VGND VGND VPWR VPWR sky130_fd_sc_hd__decap_3
XFILLER_0_15 VGND VGND VPWR VPWR sky130_fd_sc_hd__decap_3
XFILLER_14_230 VGND VGND VPWR VPWR sky130_fd_sc_hd__decap_3
XFILLER_14_274 VGND VGND VPWR VPWR sky130_fd_sc_hd__decap_3
XFILLER_9_24 VGND VGND VPWR VPWR sky130_fd_sc_hd__decap_3
XFILLER_9_57 VGND VGND VPWR VPWR sky130_fd_sc_hd__decap_3
XFILLER_20_200 VGND VGND VPWR VPWR sky130_fd_sc_hd__decap_3
XFILLER_20_233 VGND VGND VPWR VPWR sky130_fd_sc_hd__decap_3
XFILLER_20_277 VGND VGND VPWR VPWR sky130_fd_sc_hd__decap_3
XFILLER_18_44 VGND VGND VPWR VPWR sky130_fd_sc_hd__decap_3
XFILLER_18_77 VGND VGND VPWR VPWR sky130_fd_sc_hd__decap_3
XFILLER_18_88 VGND VGND VPWR VPWR sky130_fd_sc_hd__decap_3
XFILLER_11_211 VGND VGND VPWR VPWR sky130_fd_sc_hd__decap_3
XFILLER_11_255 VGND VGND VPWR VPWR sky130_fd_sc_hd__decap_3
XFILLER_11_299 VGND VGND VPWR VPWR sky130_fd_sc_hd__decap_3
XFILLER_7_237 VGND VGND VPWR VPWR sky130_fd_sc_hd__decap_3
XFILLER_19_311 VGND VGND VPWR VPWR sky130_fd_sc_hd__decap_3
XFILLER_22_9 VGND VGND VPWR VPWR sky130_fd_sc_hd__decap_3
XFILLER_6_292 VGND VGND VPWR VPWR sky130_fd_sc_hd__decap_3
XFILLER_29_108 VGND VGND VPWR VPWR sky130_fd_sc_hd__decap_3
XFILLER_29_119 VGND VGND VPWR VPWR sky130_fd_sc_hd__decap_3
XFILLER_25_314 VGND VGND VPWR VPWR sky130_fd_sc_hd__decap_3
XFILLER_20_12 VGND VGND VPWR VPWR sky130_fd_sc_hd__decap_3
XFILLER_20_56 VGND VGND VPWR VPWR sky130_fd_sc_hd__decap_3
XFILLER_4_218 VGND VGND VPWR VPWR sky130_fd_sc_hd__decap_3
XFILLER_28_130 VGND VGND VPWR VPWR sky130_fd_sc_hd__decap_3
XFILLER_28_141 VGND VGND VPWR VPWR sky130_fd_sc_hd__decap_3
XFILLER_28_174 VGND VGND VPWR VPWR sky130_fd_sc_hd__decap_3
XFILLER_29_21 VGND VGND VPWR VPWR sky130_fd_sc_hd__decap_3
XFILLER_29_54 VGND VGND VPWR VPWR sky130_fd_sc_hd__fill_2
XFILLER_29_87 VGND VGND VPWR VPWR sky130_fd_sc_hd__decap_3
XFILLER_31_317 VGND VGND VPWR VPWR sky130_fd_sc_hd__decap_3
XFILLER_6_47 VGND VGND VPWR VPWR sky130_fd_sc_hd__decap_3
XFILLER_20_6 VGND VGND VPWR VPWR sky130_fd_sc_hd__decap_3
XFILLER_3_284 VGND VGND VPWR VPWR sky130_fd_sc_hd__decap_3
XFILLER_3_273 VGND VGND VPWR VPWR sky130_fd_sc_hd__decap_3
XFILLER_3_240 VGND VGND VPWR VPWR sky130_fd_sc_hd__decap_3
XFILLER_19_152 VGND VGND VPWR VPWR sky130_fd_sc_hd__decap_3
XFILLER_19_196 VGND VGND VPWR VPWR sky130_fd_sc_hd__decap_3
XFILLER_13_317 VGND VGND VPWR VPWR sky130_fd_sc_hd__decap_3
XFILLER_15_12 VGND VGND VPWR VPWR sky130_fd_sc_hd__decap_3
XFILLER_15_45 VGND VGND VPWR VPWR sky130_fd_sc_hd__decap_3
XFILLER_15_78 VGND VGND VPWR VPWR sky130_fd_sc_hd__decap_3
XFILLER_25_111 VGND VGND VPWR VPWR sky130_fd_sc_hd__fill_1
XFILLER_25_122 VGND VGND VPWR VPWR sky130_fd_sc_hd__decap_3
XFILLER_25_155 VGND VGND VPWR VPWR sky130_fd_sc_hd__decap_3
XFILLER_25_199 VGND VGND VPWR VPWR sky130_fd_sc_hd__decap_3
XFILLER_31_99 VGND VGND VPWR VPWR sky130_fd_sc_hd__decap_3
XFILLER_31_66 VGND VGND VPWR VPWR sky130_fd_sc_hd__decap_3
XFILLER_31_33 VGND VGND VPWR VPWR sky130_fd_sc_hd__decap_3
XFILLER_0_243 VGND VGND VPWR VPWR sky130_fd_sc_hd__decap_3
XFILLER_0_265 VGND VGND VPWR VPWR sky130_fd_sc_hd__decap_3
XFILLER_0_287 VGND VGND VPWR VPWR sky130_fd_sc_hd__decap_3
XFILLER_16_100 VGND VGND VPWR VPWR sky130_fd_sc_hd__decap_3
XFILLER_16_133 VGND VGND VPWR VPWR sky130_fd_sc_hd__decap_3
XFILLER_16_144 VGND VGND VPWR VPWR sky130_fd_sc_hd__decap_3
XFILLER_16_188 VGND VGND VPWR VPWR sky130_fd_sc_hd__decap_3
XFILLER_8_321 VGND VGND VPWR VPWR sky130_fd_sc_hd__decap_3
XFILLER_31_125 VGND VGND VPWR VPWR sky130_fd_sc_hd__decap_3
XFILLER_22_103 VGND VGND VPWR VPWR sky130_fd_sc_hd__decap_3
XFILLER_22_136 VGND VGND VPWR VPWR sky130_fd_sc_hd__decap_3
XFILLER_22_147 VGND VGND VPWR VPWR sky130_fd_sc_hd__decap_3
XFILLER_10_309 VGND VGND VPWR VPWR sky130_fd_sc_hd__decap_3
XFILLER_7_90 VGND VGND VPWR VPWR sky130_fd_sc_hd__decap_3
XFILLER_30_191 VGND VGND VPWR VPWR sky130_fd_sc_hd__decap_3
XFILLER_26_44 VGND VGND VPWR VPWR sky130_fd_sc_hd__decap_3
XFILLER_13_125 VGND VGND VPWR VPWR sky130_fd_sc_hd__decap_3
XFILLER_13_158 VGND VGND VPWR VPWR sky130_fd_sc_hd__decap_3
XFILLER_13_169 VGND VGND VPWR VPWR sky130_fd_sc_hd__decap_3
XFILLER_26_77 VGND VGND VPWR VPWR sky130_fd_sc_hd__decap_3
XFILLER_26_88 VGND VGND VPWR VPWR sky130_fd_sc_hd__decap_3
XFILLER_5_302 VGND VGND VPWR VPWR sky130_fd_sc_hd__decap_3
XFILLER_3_48 VGND VGND VPWR VPWR sky130_fd_sc_hd__decap_3
XFILLER_3_15 VGND VGND VPWR VPWR sky130_fd_sc_hd__decap_3
XFILLER_12_191 VGND VGND VPWR VPWR sky130_fd_sc_hd__decap_3
XTAP_TAPCELL_ROW_14_153 VGND VPWR sky130_fd_sc_hd__tapvpwrvgnd_1
XFILLER_8_195 VGND VGND VPWR VPWR sky130_fd_sc_hd__fill_1
XFILLER_8_162 VGND VGND VPWR VPWR sky130_fd_sc_hd__decap_3
XTAP_TAPCELL_ROW_3_91 VGND VPWR sky130_fd_sc_hd__tapvpwrvgnd_1
XFILLER_27_217 VGND VGND VPWR VPWR sky130_fd_sc_hd__decap_3
XFILLER_27_228 VGND VGND VPWR VPWR sky130_fd_sc_hd__decap_3
XPHY_EDGE_ROW_19_Left_53 VGND VGND VPWR VPWR sky130_fd_sc_hd__decap_3
XFILLER_10_106 VGND VGND VPWR VPWR sky130_fd_sc_hd__decap_3
XFILLER_10_139 VGND VGND VPWR VPWR sky130_fd_sc_hd__fill_1
XFILLER_12_24 VGND VGND VPWR VPWR sky130_fd_sc_hd__decap_3
XFILLER_12_35 VGND VGND VPWR VPWR sky130_fd_sc_hd__decap_3
XFILLER_12_68 VGND VGND VPWR VPWR sky130_fd_sc_hd__decap_3
XFILLER_2_327 VGND VGND VPWR VPWR sky130_fd_sc_hd__decap_3
XFILLER_18_206 VGND VGND VPWR VPWR sky130_fd_sc_hd__decap_3
XFILLER_18_239 VGND VGND VPWR VPWR sky130_fd_sc_hd__decap_3
XFILLER_26_283 VGND VGND VPWR VPWR sky130_fd_sc_hd__decap_3
XTAP_TAPCELL_ROW_11_134 VGND VPWR sky130_fd_sc_hd__tapvpwrvgnd_1
XFILLER_5_187 VGND VGND VPWR VPWR sky130_fd_sc_hd__decap_3
XFILLER_5_143 VGND VGND VPWR VPWR sky130_fd_sc_hd__decap_3
XFILLER_24_209 VGND VGND VPWR VPWR sky130_fd_sc_hd__decap_3
XFILLER_17_261 VGND VGND VPWR VPWR sky130_fd_sc_hd__decap_3
XFILLER_32_286 VGND VGND VPWR VPWR sky130_fd_sc_hd__decap_3
XFILLER_32_253 VGND VGND VPWR VPWR sky130_fd_sc_hd__decap_3
XFILLER_32_242 VGND VGND VPWR VPWR sky130_fd_sc_hd__decap_3
XFILLER_4_91 VGND VGND VPWR VPWR sky130_fd_sc_hd__decap_3
XFILLER_4_80 VGND VGND VPWR VPWR sky130_fd_sc_hd__decap_3
XFILLER_23_220 VGND VGND VPWR VPWR sky130_fd_sc_hd__decap_3
XFILLER_23_231 VGND VGND VPWR VPWR sky130_fd_sc_hd__decap_3
XPHY_EDGE_ROW_4_Left_38 VGND VGND VPWR VPWR sky130_fd_sc_hd__decap_3
XTAP_TAPCELL_ROW_25_215 VGND VPWR sky130_fd_sc_hd__tapvpwrvgnd_1
XFILLER_23_12 VGND VGND VPWR VPWR sky130_fd_sc_hd__decap_3
XFILLER_23_264 VGND VGND VPWR VPWR sky130_fd_sc_hd__decap_3
XFILLER_23_45 VGND VGND VPWR VPWR sky130_fd_sc_hd__decap_3
XFILLER_23_78 VGND VGND VPWR VPWR sky130_fd_sc_hd__decap_3
XFILLER_2_124 VGND VGND VPWR VPWR sky130_fd_sc_hd__decap_3
XFILLER_0_27 VGND VGND VPWR VPWR sky130_fd_sc_hd__fill_1
XFILLER_0_38 VGND VGND VPWR VPWR sky130_fd_sc_hd__decap_3
XFILLER_14_242 VGND VGND VPWR VPWR sky130_fd_sc_hd__decap_3
XFILLER_14_253 VGND VGND VPWR VPWR sky130_fd_sc_hd__decap_3
XFILLER_14_286 VGND VGND VPWR VPWR sky130_fd_sc_hd__decap_3
XFILLER_9_36 VGND VGND VPWR VPWR sky130_fd_sc_hd__decap_3
XFILLER_9_69 VGND VGND VPWR VPWR sky130_fd_sc_hd__decap_3
XFILLER_29_3 VGND VGND VPWR VPWR sky130_fd_sc_hd__decap_3
XTAP_TAPCELL_ROW_0_70 VGND VPWR sky130_fd_sc_hd__tapvpwrvgnd_1
XFILLER_20_212 VGND VGND VPWR VPWR sky130_fd_sc_hd__decap_3
XFILLER_20_245 VGND VGND VPWR VPWR sky130_fd_sc_hd__decap_3
XFILLER_20_256 VGND VGND VPWR VPWR sky130_fd_sc_hd__decap_3
XFILLER_20_289 VGND VGND VPWR VPWR sky130_fd_sc_hd__decap_3
XTAP_TAPCELL_ROW_30_240 VGND VPWR sky130_fd_sc_hd__tapvpwrvgnd_1
XFILLER_9_290 VGND VGND VPWR VPWR sky130_fd_sc_hd__decap_3
XFILLER_18_12 VGND VGND VPWR VPWR sky130_fd_sc_hd__decap_3
XFILLER_18_56 VGND VGND VPWR VPWR sky130_fd_sc_hd__decap_3
XFILLER_28_301 VGND VGND VPWR VPWR sky130_fd_sc_hd__decap_3
XFILLER_28_312 VGND VGND VPWR VPWR sky130_fd_sc_hd__decap_3
XFILLER_11_223 VGND VGND VPWR VPWR sky130_fd_sc_hd__fill_1
XFILLER_11_234 VGND VGND VPWR VPWR sky130_fd_sc_hd__decap_3
XFILLER_11_267 VGND VGND VPWR VPWR sky130_fd_sc_hd__decap_3
XFILLER_7_249 VGND VGND VPWR VPWR sky130_fd_sc_hd__decap_3
XFILLER_7_205 VGND VGND VPWR VPWR sky130_fd_sc_hd__decap_3
XFILLER_15_9 VGND VGND VPWR VPWR sky130_fd_sc_hd__decap_3
XFILLER_19_323 VGND VGND VPWR VPWR sky130_fd_sc_hd__decap_3
XFILLER_6_271 VGND VGND VPWR VPWR sky130_fd_sc_hd__decap_3
XFILLER_1_81 VGND VGND VPWR VPWR sky130_fd_sc_hd__decap_3
XFILLER_25_326 VGND VGND VPWR VPWR sky130_fd_sc_hd__decap_3
X_29_ uo_out[4] uo_out[5] uo_out[6] _29_/D VGND VGND VPWR VPWR _29_/X sky130_fd_sc_hd__and4_1
XFILLER_20_24 VGND VGND VPWR VPWR sky130_fd_sc_hd__decap_3
XFILLER_20_35 VGND VGND VPWR VPWR sky130_fd_sc_hd__decap_3
XFILLER_20_68 VGND VGND VPWR VPWR sky130_fd_sc_hd__decap_3
XFILLER_29_33 VGND VGND VPWR VPWR sky130_fd_sc_hd__decap_3
XFILLER_16_304 VGND VGND VPWR VPWR sky130_fd_sc_hd__decap_3
XFILLER_16_315 VGND VGND VPWR VPWR sky130_fd_sc_hd__decap_3
XFILLER_28_153 VGND VGND VPWR VPWR sky130_fd_sc_hd__decap_3
XFILLER_28_186 VGND VGND VPWR VPWR sky130_fd_sc_hd__decap_3
XFILLER_28_197 VGND VGND VPWR VPWR sky130_fd_sc_hd__decap_3
XFILLER_29_66 VGND VGND VPWR VPWR sky130_fd_sc_hd__decap_3
XFILLER_29_99 VGND VGND VPWR VPWR sky130_fd_sc_hd__decap_3
XPHY_EDGE_ROW_7_Left_41 VGND VGND VPWR VPWR sky130_fd_sc_hd__decap_3
XFILLER_31_329 VGND VGND VPWR VPWR sky130_fd_sc_hd__decap_3
XFILLER_6_59 VGND VGND VPWR VPWR sky130_fd_sc_hd__decap_3
XFILLER_6_15 VGND VGND VPWR VPWR sky130_fd_sc_hd__decap_3
XFILLER_3_252 VGND VGND VPWR VPWR sky130_fd_sc_hd__decap_3
XFILLER_13_6 VGND VGND VPWR VPWR sky130_fd_sc_hd__decap_3
XFILLER_19_131 VGND VGND VPWR VPWR sky130_fd_sc_hd__decap_3
XFILLER_3_296 VGND VGND VPWR VPWR sky130_fd_sc_hd__decap_3
XFILLER_19_164 VGND VGND VPWR VPWR sky130_fd_sc_hd__decap_3
XFILLER_19_175 VGND VGND VPWR VPWR sky130_fd_sc_hd__decap_3
XFILLER_22_307 VGND VGND VPWR VPWR sky130_fd_sc_hd__fill_1
XFILLER_22_318 VGND VGND VPWR VPWR sky130_fd_sc_hd__decap_3
XFILLER_13_329 VGND VGND VPWR VPWR sky130_fd_sc_hd__decap_3
XFILLER_15_24 VGND VGND VPWR VPWR sky130_fd_sc_hd__decap_3
XFILLER_15_57 VGND VGND VPWR VPWR sky130_fd_sc_hd__decap_3
XFILLER_25_134 VGND VGND VPWR VPWR sky130_fd_sc_hd__decap_3