* NGSPICE file created from tiny_tonegen.ext - technology: gf180mcuD

* Black-box entry subcircuit for gf180mcu_fd_sc_mcu7t5v0__fill_2 abstract view
.subckt gf180mcu_fd_sc_mcu7t5v0__fill_2 VDD VNW VPW VSS
.ends

* Black-box entry subcircuit for gf180mcu_fd_sc_mcu7t5v0__fillcap_4 abstract view
.subckt gf180mcu_fd_sc_mcu7t5v0__fillcap_4 VDD VNW VPW VSS
.ends

* Black-box entry subcircuit for gf180mcu_fd_sc_mcu7t5v0__fillcap_16 abstract view
.subckt gf180mcu_fd_sc_mcu7t5v0__fillcap_16 VDD VNW VPW VSS
.ends

* Black-box entry subcircuit for gf180mcu_fd_sc_mcu7t5v0__tiel abstract view
.subckt gf180mcu_fd_sc_mcu7t5v0__tiel ZN VDD VNW VPW VSS
.ends

* Black-box entry subcircuit for gf180mcu_fd_sc_mcu7t5v0__filltie abstract view
.subckt gf180mcu_fd_sc_mcu7t5v0__filltie VDD VSS
.ends

* Black-box entry subcircuit for gf180mcu_fd_sc_mcu7t5v0__endcap abstract view
.subckt gf180mcu_fd_sc_mcu7t5v0__endcap VDD VSS
.ends

* Black-box entry subcircuit for gf180mcu_fd_sc_mcu7t5v0__nand2_1 abstract view
.subckt gf180mcu_fd_sc_mcu7t5v0__nand2_1 A1 A2 ZN VDD VNW VPW VSS
.ends

* Black-box entry subcircuit for gf180mcu_fd_sc_mcu7t5v0__oai22_2 abstract view
.subckt gf180mcu_fd_sc_mcu7t5v0__oai22_2 A1 A2 B1 B2 ZN VDD VNW VPW VSS
.ends

* Black-box entry subcircuit for gf180mcu_fd_sc_mcu7t5v0__fill_1 abstract view
.subckt gf180mcu_fd_sc_mcu7t5v0__fill_1 VDD VNW VPW VSS
.ends

* Black-box entry subcircuit for gf180mcu_fd_sc_mcu7t5v0__fillcap_8 abstract view
.subckt gf180mcu_fd_sc_mcu7t5v0__fillcap_8 VDD VNW VPW VSS
.ends

* Black-box entry subcircuit for gf180mcu_fd_sc_mcu7t5v0__aoi22_1 abstract view
.subckt gf180mcu_fd_sc_mcu7t5v0__aoi22_1 A1 A2 B1 B2 ZN VDD VNW VPW VSS
.ends

* Black-box entry subcircuit for gf180mcu_fd_sc_mcu7t5v0__fillcap_32 abstract view
.subckt gf180mcu_fd_sc_mcu7t5v0__fillcap_32 VDD VNW VPW VSS
.ends

* Black-box entry subcircuit for gf180mcu_fd_sc_mcu7t5v0__fillcap_64 abstract view
.subckt gf180mcu_fd_sc_mcu7t5v0__fillcap_64 VDD VNW VPW VSS
.ends

* Black-box entry subcircuit for gf180mcu_fd_sc_mcu7t5v0__nor3_1 abstract view
.subckt gf180mcu_fd_sc_mcu7t5v0__nor3_1 A1 A2 A3 ZN VDD VNW VPW VSS
.ends

* Black-box entry subcircuit for gf180mcu_fd_sc_mcu7t5v0__nor2_1 abstract view
.subckt gf180mcu_fd_sc_mcu7t5v0__nor2_1 A1 A2 ZN VDD VNW VPW VSS
.ends

* Black-box entry subcircuit for gf180mcu_fd_sc_mcu7t5v0__clkbuf_2 abstract view
.subckt gf180mcu_fd_sc_mcu7t5v0__clkbuf_2 I Z VDD VNW VPW VSS
.ends

* Black-box entry subcircuit for gf180mcu_fd_sc_mcu7t5v0__dffrnq_1 abstract view
.subckt gf180mcu_fd_sc_mcu7t5v0__dffrnq_1 D RN CLK Q VDD VNW VPW VSS
.ends

* Black-box entry subcircuit for gf180mcu_fd_sc_mcu7t5v0__and2_1 abstract view
.subckt gf180mcu_fd_sc_mcu7t5v0__and2_1 A1 A2 Z VDD VNW VPW VSS
.ends

* Black-box entry subcircuit for gf180mcu_fd_sc_mcu7t5v0__xnor2_1 abstract view
.subckt gf180mcu_fd_sc_mcu7t5v0__xnor2_1 A1 A2 ZN VDD VNW VPW VSS
.ends

* Black-box entry subcircuit for gf180mcu_fd_sc_mcu7t5v0__clkinv_1 abstract view
.subckt gf180mcu_fd_sc_mcu7t5v0__clkinv_1 I ZN VDD VNW VPW VSS
.ends

* Black-box entry subcircuit for gf180mcu_fd_sc_mcu7t5v0__clkbuf_16 abstract view
.subckt gf180mcu_fd_sc_mcu7t5v0__clkbuf_16 I Z VDD VNW VPW VSS
.ends

* Black-box entry subcircuit for gf180mcu_fd_sc_mcu7t5v0__dffsnq_2 abstract view
.subckt gf180mcu_fd_sc_mcu7t5v0__dffsnq_2 D SETN CLK Q VDD VNW VPW VSS
.ends

* Black-box entry subcircuit for gf180mcu_fd_sc_mcu7t5v0__dffrnq_4 abstract view
.subckt gf180mcu_fd_sc_mcu7t5v0__dffrnq_4 D RN CLK Q VDD VNW VPW VSS
.ends

* Black-box entry subcircuit for gf180mcu_fd_sc_mcu7t5v0__aoi21_1 abstract view
.subckt gf180mcu_fd_sc_mcu7t5v0__aoi21_1 A1 A2 B ZN VDD VNW VPW VSS
.ends

* Black-box entry subcircuit for gf180mcu_fd_sc_mcu7t5v0__nor4_2 abstract view
.subckt gf180mcu_fd_sc_mcu7t5v0__nor4_2 A1 A2 A3 A4 ZN VDD VNW VPW VSS
.ends

* Black-box entry subcircuit for gf180mcu_fd_sc_mcu7t5v0__and4_1 abstract view
.subckt gf180mcu_fd_sc_mcu7t5v0__and4_1 A1 A2 A3 A4 Z VDD VNW VPW VSS
.ends

* Black-box entry subcircuit for gf180mcu_fd_sc_mcu7t5v0__and3_1 abstract view
.subckt gf180mcu_fd_sc_mcu7t5v0__and3_1 A1 A2 A3 Z VDD VNW VPW VSS
.ends

* Black-box entry subcircuit for gf180mcu_fd_sc_mcu7t5v0__or2_1 abstract view
.subckt gf180mcu_fd_sc_mcu7t5v0__or2_1 A1 A2 Z VDD VNW VPW VSS
.ends

* Black-box entry subcircuit for gf180mcu_fd_sc_mcu7t5v0__clkbuf_1 abstract view
.subckt gf180mcu_fd_sc_mcu7t5v0__clkbuf_1 I Z VDD VNW VPW VSS
.ends

* Black-box entry subcircuit for gf180mcu_fd_sc_mcu7t5v0__oai211_4 abstract view
.subckt gf180mcu_fd_sc_mcu7t5v0__oai211_4 A1 A2 B C ZN VDD VNW VPW VSS
.ends

* Black-box entry subcircuit for gf180mcu_fd_sc_mcu7t5v0__buf_2 abstract view
.subckt gf180mcu_fd_sc_mcu7t5v0__buf_2 I Z VDD VNW VPW VSS
.ends

* Black-box entry subcircuit for gf180mcu_fd_sc_mcu7t5v0__inv_1 abstract view
.subckt gf180mcu_fd_sc_mcu7t5v0__inv_1 I ZN VDD VNW VPW VSS
.ends

* Black-box entry subcircuit for gf180mcu_fd_sc_mcu7t5v0__clkbuf_4 abstract view
.subckt gf180mcu_fd_sc_mcu7t5v0__clkbuf_4 I Z VDD VNW VPW VSS
.ends

* Black-box entry subcircuit for gf180mcu_fd_sc_mcu7t5v0__aoi21_2 abstract view
.subckt gf180mcu_fd_sc_mcu7t5v0__aoi21_2 A1 A2 B ZN VDD VNW VPW VSS
.ends

* Black-box entry subcircuit for gf180mcu_fd_sc_mcu7t5v0__oai21_1 abstract view
.subckt gf180mcu_fd_sc_mcu7t5v0__oai21_1 A1 A2 B ZN VDD VNW VPW VSS
.ends

* Black-box entry subcircuit for gf180mcu_fd_sc_mcu7t5v0__nor4_4 abstract view
.subckt gf180mcu_fd_sc_mcu7t5v0__nor4_4 A1 A2 A3 A4 ZN VDD VNW VPW VSS
.ends

* Black-box entry subcircuit for gf180mcu_fd_sc_mcu7t5v0__mux2_2 abstract view
.subckt gf180mcu_fd_sc_mcu7t5v0__mux2_2 I0 I1 S Z VDD VNW VPW VSS
.ends

* Black-box entry subcircuit for gf180mcu_fd_sc_mcu7t5v0__dffq_1 abstract view
.subckt gf180mcu_fd_sc_mcu7t5v0__dffq_1 D CLK Q VDD VNW VPW VSS
.ends

* Black-box entry subcircuit for gf180mcu_fd_sc_mcu7t5v0__nand3_1 abstract view
.subckt gf180mcu_fd_sc_mcu7t5v0__nand3_1 A1 A2 A3 ZN VDD VNW VPW VSS
.ends

* Black-box entry subcircuit for gf180mcu_fd_sc_mcu7t5v0__nand2_2 abstract view
.subckt gf180mcu_fd_sc_mcu7t5v0__nand2_2 A1 A2 ZN VDD VNW VPW VSS
.ends

* Black-box entry subcircuit for gf180mcu_fd_sc_mcu7t5v0__xor2_1 abstract view
.subckt gf180mcu_fd_sc_mcu7t5v0__xor2_1 A1 A2 Z VDD VNW VPW VSS
.ends

* Black-box entry subcircuit for gf180mcu_fd_sc_mcu7t5v0__oai211_2 abstract view
.subckt gf180mcu_fd_sc_mcu7t5v0__oai211_2 A1 A2 B C ZN VDD VNW VPW VSS
.ends

* Black-box entry subcircuit for gf180mcu_fd_sc_mcu7t5v0__nand3_4 abstract view
.subckt gf180mcu_fd_sc_mcu7t5v0__nand3_4 A1 A2 A3 ZN VDD VNW VPW VSS
.ends

* Black-box entry subcircuit for gf180mcu_fd_sc_mcu7t5v0__oai211_1 abstract view
.subckt gf180mcu_fd_sc_mcu7t5v0__oai211_1 A1 A2 B C ZN VDD VNW VPW VSS
.ends

* Black-box entry subcircuit for gf180mcu_fd_sc_mcu7t5v0__aoi211_4 abstract view
.subckt gf180mcu_fd_sc_mcu7t5v0__aoi211_4 A1 A2 B C ZN VDD VNW VPW VSS
.ends

* Black-box entry subcircuit for gf180mcu_fd_sc_mcu7t5v0__oai31_1 abstract view
.subckt gf180mcu_fd_sc_mcu7t5v0__oai31_1 A1 A2 A3 B ZN VDD VNW VPW VSS
.ends

.subckt tiny_tonegen VDD VSS address_in[0] address_in[1] address_in[2] clk data_in[0]
+ data_in[1] data_in[2] data_in[3] data_in[4] ena rst_n signal_bit_out write_strobe_in
XFILLER_22_133 VDD VDD VSS VSS gf180mcu_fd_sc_mcu7t5v0__fill_2
XFILLER_13_133 VDD VDD VSS VSS gf180mcu_fd_sc_mcu7t5v0__fillcap_4
XFILLER_10_103 VDD VDD VSS VSS gf180mcu_fd_sc_mcu7t5v0__fill_2
XFILLER_12_10 VDD VDD VSS VSS gf180mcu_fd_sc_mcu7t5v0__fill_2
XFILLER_18_247 VDD VDD VSS VSS gf180mcu_fd_sc_mcu7t5v0__fillcap_16
X_243__21 _243_/D VDD VDD VSS VSS gf180mcu_fd_sc_mcu7t5v0__tiel
XTAP_TAPCELL_ROW_8_77 VDD VSS gf180mcu_fd_sc_mcu7t5v0__filltie
XTAP_TAPCELL_ROW_20_120 VDD VSS gf180mcu_fd_sc_mcu7t5v0__filltie
XPHY_EDGE_ROW_0_Left_23 VDD VSS gf180mcu_fd_sc_mcu7t5v0__endcap
X_200_ input5/Z _207_/A2 _201_/B VDD VDD VSS VSS gf180mcu_fd_sc_mcu7t5v0__nand2_1
X_131_ _236_/Q _201_/A1 _199_/A1 _235_/Q _136_/A2 VDD VDD VSS VSS gf180mcu_fd_sc_mcu7t5v0__oai22_2
X_231__24 _231_/D VDD VDD VSS VSS gf180mcu_fd_sc_mcu7t5v0__tiel
XFILLER_15_6 VDD VDD VSS VSS gf180mcu_fd_sc_mcu7t5v0__fill_1
XTAP_TAPCELL_ROW_5_67 VDD VSS gf180mcu_fd_sc_mcu7t5v0__filltie
XFILLER_3_260 VDD VDD VSS VSS gf180mcu_fd_sc_mcu7t5v0__fillcap_8
XFILLER_6_34 VDD VDD VSS VSS gf180mcu_fd_sc_mcu7t5v0__fill_1
XFILLER_15_65 VDD VDD VSS VSS gf180mcu_fd_sc_mcu7t5v0__fillcap_4
XTAP_TAPCELL_ROW_2_57 VDD VSS gf180mcu_fd_sc_mcu7t5v0__filltie
XTAP_TAPCELL_ROW_18_115 VDD VSS gf180mcu_fd_sc_mcu7t5v0__filltie
XFILLER_22_145 VDD VDD VSS VSS gf180mcu_fd_sc_mcu7t5v0__fillcap_16
XFILLER_12_33 VDD VDD VSS VSS gf180mcu_fd_sc_mcu7t5v0__fill_2
XTAP_TAPCELL_ROW_8_78 VDD VSS gf180mcu_fd_sc_mcu7t5v0__filltie
XTAP_TAPCELL_ROW_20_121 VDD VSS gf180mcu_fd_sc_mcu7t5v0__filltie
XFILLER_17_270 VDD VDD VSS VSS gf180mcu_fd_sc_mcu7t5v0__fill_1
XFILLER_15_218 VDD VDD VSS VSS gf180mcu_fd_sc_mcu7t5v0__fillcap_16
X_130_ _177_/A2 _249_/Q _248_/Q _177_/A3 _137_/A2 VDD VDD VSS VSS gf180mcu_fd_sc_mcu7t5v0__aoi22_1
XPHY_EDGE_ROW_21_Right_21 VDD VSS gf180mcu_fd_sc_mcu7t5v0__endcap
XPHY_EDGE_ROW_12_Right_12 VDD VSS gf180mcu_fd_sc_mcu7t5v0__endcap
XFILLER_0_36 VDD VDD VSS VSS gf180mcu_fd_sc_mcu7t5v0__fillcap_32
XFILLER_2_177 VDD VDD VSS VSS gf180mcu_fd_sc_mcu7t5v0__fillcap_64
XFILLER_3_2 VDD VDD VSS VSS gf180mcu_fd_sc_mcu7t5v0__fillcap_64
XFILLER_18_10 VDD VDD VSS VSS gf180mcu_fd_sc_mcu7t5v0__fillcap_16
XTAP_TAPCELL_ROW_5_68 VDD VSS gf180mcu_fd_sc_mcu7t5v0__filltie
XFILLER_7_236 VDD VDD VSS VSS gf180mcu_fd_sc_mcu7t5v0__fill_2
XFILLER_15_11 VDD VDD VSS VSS gf180mcu_fd_sc_mcu7t5v0__fillcap_16
XPHY_EDGE_ROW_6_Right_6 VDD VSS gf180mcu_fd_sc_mcu7t5v0__endcap
XFILLER_0_264 VDD VDD VSS VSS gf180mcu_fd_sc_mcu7t5v0__fillcap_4
XFILLER_16_121 VDD VDD VSS VSS gf180mcu_fd_sc_mcu7t5v0__fill_1
XTAP_TAPCELL_ROW_2_58 VDD VSS gf180mcu_fd_sc_mcu7t5v0__filltie
XFILLER_22_135 VDD VDD VSS VSS gf180mcu_fd_sc_mcu7t5v0__fill_1
XFILLER_13_146 VDD VDD VSS VSS gf180mcu_fd_sc_mcu7t5v0__fill_1
XFILLER_9_106 VDD VDD VSS VSS gf180mcu_fd_sc_mcu7t5v0__fill_1
XFILLER_8_161 VDD VDD VSS VSS gf180mcu_fd_sc_mcu7t5v0__fill_1
XFILLER_12_12 VDD VDD VSS VSS gf180mcu_fd_sc_mcu7t5v0__fill_1
XTAP_TAPCELL_ROW_20_122 VDD VSS gf180mcu_fd_sc_mcu7t5v0__filltie
XTAP_TAPCELL_ROW_8_79 VDD VSS gf180mcu_fd_sc_mcu7t5v0__filltie
XFILLER_5_197 VDD VDD VSS VSS gf180mcu_fd_sc_mcu7t5v0__fillcap_8
XFILLER_15_208 VDD VDD VSS VSS gf180mcu_fd_sc_mcu7t5v0__fill_2
XFILLER_17_260 VDD VDD VSS VSS gf180mcu_fd_sc_mcu7t5v0__fillcap_8
XFILLER_14_263 VDD VDD VSS VSS gf180mcu_fd_sc_mcu7t5v0__fillcap_8
XFILLER_2_101 VDD VDD VSS VSS gf180mcu_fd_sc_mcu7t5v0__fillcap_4
X_189_ _241_/Q _186_/Z _192_/A2 VDD VDD VSS VSS gf180mcu_fd_sc_mcu7t5v0__nand2_1
XFILLER_9_68 VDD VDD VSS VSS gf180mcu_fd_sc_mcu7t5v0__fill_2
XFILLER_18_99 VDD VDD VSS VSS gf180mcu_fd_sc_mcu7t5v0__fillcap_4
XTAP_TAPCELL_ROW_5_69 VDD VSS gf180mcu_fd_sc_mcu7t5v0__filltie
XFILLER_20_34 VDD VDD VSS VSS gf180mcu_fd_sc_mcu7t5v0__fill_1
XPHY_EDGE_ROW_16_Left_39 VDD VSS gf180mcu_fd_sc_mcu7t5v0__endcap
XFILLER_16_111 VDD VDD VSS VSS gf180mcu_fd_sc_mcu7t5v0__fillcap_8
XTAP_TAPCELL_ROW_2_59 VDD VSS gf180mcu_fd_sc_mcu7t5v0__filltie
XFILLER_11_2 VDD VDD VSS VSS gf180mcu_fd_sc_mcu7t5v0__fillcap_4
XFILLER_22_169 VDD VDD VSS VSS gf180mcu_fd_sc_mcu7t5v0__fill_1
XFILLER_10_117 VDD VDD VSS VSS gf180mcu_fd_sc_mcu7t5v0__fill_1
XPHY_EDGE_ROW_19_Left_42 VDD VSS gf180mcu_fd_sc_mcu7t5v0__endcap
XFILLER_5_165 VDD VDD VSS VSS gf180mcu_fd_sc_mcu7t5v0__fillcap_32
XPHY_EDGE_ROW_4_Left_27 VDD VSS gf180mcu_fd_sc_mcu7t5v0__endcap
X_188_ _193_/A1 _186_/Z _188_/A3 _240_/D VDD VDD VSS VSS gf180mcu_fd_sc_mcu7t5v0__nor3_1
XFILLER_11_234 VDD VDD VSS VSS gf180mcu_fd_sc_mcu7t5v0__fill_2
XFILLER_7_238 VDD VDD VSS VSS gf180mcu_fd_sc_mcu7t5v0__fill_1
XPHY_EDGE_ROW_7_Left_30 VDD VSS gf180mcu_fd_sc_mcu7t5v0__endcap
XFILLER_6_37 VDD VDD VSS VSS gf180mcu_fd_sc_mcu7t5v0__fillcap_64
XFILLER_13_6 VDD VDD VSS VSS gf180mcu_fd_sc_mcu7t5v0__fill_2
XFILLER_22_104 VDD VDD VSS VSS gf180mcu_fd_sc_mcu7t5v0__fillcap_4
XFILLER_7_80 VDD VDD VSS VSS gf180mcu_fd_sc_mcu7t5v0__fillcap_8
XFILLER_13_137 VDD VDD VSS VSS gf180mcu_fd_sc_mcu7t5v0__fill_2
XFILLER_13_159 VDD VDD VSS VSS gf180mcu_fd_sc_mcu7t5v0__fill_2
XFILLER_9_119 VDD VDD VSS VSS gf180mcu_fd_sc_mcu7t5v0__fillcap_16
XFILLER_12_25 VDD VDD VSS VSS gf180mcu_fd_sc_mcu7t5v0__fillcap_8
XFILLER_8_130 VDD VDD VSS VSS gf180mcu_fd_sc_mcu7t5v0__fill_1
XFILLER_12_58 VDD VDD VSS VSS gf180mcu_fd_sc_mcu7t5v0__fill_2
XPHY_EDGE_ROW_20_Left_43 VDD VSS gf180mcu_fd_sc_mcu7t5v0__endcap
X_187_ _240_/Q _183_/Z _188_/A3 VDD VDD VSS VSS gf180mcu_fd_sc_mcu7t5v0__nor2_1
XFILLER_1_2 VDD VDD VSS VSS gf180mcu_fd_sc_mcu7t5v0__fillcap_64
Xclkload0 _233_/CLK clkload0/Z VDD VDD VSS VSS gf180mcu_fd_sc_mcu7t5v0__clkbuf_2
X_239_ _239_/D _239_/RN _252_/CLK _239_/Q VDD VDD VSS VSS gf180mcu_fd_sc_mcu7t5v0__dffrnq_1
XTAP_TAPCELL_ROW_6_70 VDD VSS gf180mcu_fd_sc_mcu7t5v0__filltie
XFILLER_15_69 VDD VDD VSS VSS gf180mcu_fd_sc_mcu7t5v0__fill_1
XFILLER_0_256 VDD VDD VSS VSS gf180mcu_fd_sc_mcu7t5v0__fillcap_8
XPHY_EDGE_ROW_19_Right_19 VDD VSS gf180mcu_fd_sc_mcu7t5v0__endcap
XFILLER_22_138 VDD VDD VSS VSS gf180mcu_fd_sc_mcu7t5v0__fill_1
XFILLER_7_92 VDD VDD VSS VSS gf180mcu_fd_sc_mcu7t5v0__fill_2
XTAP_TAPCELL_ROW_3_60 VDD VSS gf180mcu_fd_sc_mcu7t5v0__filltie
XTAP_TAPCELL_ROW_14_100 VDD VSS gf180mcu_fd_sc_mcu7t5v0__filltie
XFILLER_12_37 VDD VDD VSS VSS gf180mcu_fd_sc_mcu7t5v0__fill_2
XFILLER_5_112 VDD VDD VSS VSS gf180mcu_fd_sc_mcu7t5v0__fillcap_4
XFILLER_14_255 VDD VDD VSS VSS gf180mcu_fd_sc_mcu7t5v0__fillcap_4
X_186_ _240_/Q _183_/Z _186_/Z VDD VDD VSS VSS gf180mcu_fd_sc_mcu7t5v0__and2_1
XFILLER_9_49 VDD VDD VSS VSS gf180mcu_fd_sc_mcu7t5v0__fill_1
XFILLER_20_247 VDD VDD VSS VSS gf180mcu_fd_sc_mcu7t5v0__fillcap_16
XTAP_TAPCELL_ROW_9_81 VDD VSS gf180mcu_fd_sc_mcu7t5v0__filltie
XTAP_TAPCELL_ROW_0_50 VDD VSS gf180mcu_fd_sc_mcu7t5v0__filltie
XFILLER_11_236 VDD VDD VSS VSS gf180mcu_fd_sc_mcu7t5v0__fill_1
XFILLER_1_72 VDD VDD VSS VSS gf180mcu_fd_sc_mcu7t5v0__fillcap_64
X_238_ _238_/D _238_/RN _252_/CLK _238_/Q VDD VDD VSS VSS gf180mcu_fd_sc_mcu7t5v0__dffrnq_1
X_169_ _226_/Q _166_/Z _170_/A2 VDD VDD VSS VSS gf180mcu_fd_sc_mcu7t5v0__xnor2_1
XFILLER_20_37 VDD VDD VSS VSS gf180mcu_fd_sc_mcu7t5v0__fillcap_64
XTAP_TAPCELL_ROW_6_71 VDD VSS gf180mcu_fd_sc_mcu7t5v0__filltie
XFILLER_0_268 VDD VDD VSS VSS gf180mcu_fd_sc_mcu7t5v0__fill_2
XFILLER_13_139 VDD VDD VSS VSS gf180mcu_fd_sc_mcu7t5v0__fill_1
XTAP_TAPCELL_ROW_3_61 VDD VSS gf180mcu_fd_sc_mcu7t5v0__filltie
XTAP_TAPCELL_ROW_14_101 VDD VSS gf180mcu_fd_sc_mcu7t5v0__filltie
X_185_ _193_/A1 _183_/Z _185_/A3 _239_/D VDD VDD VSS VSS gf180mcu_fd_sc_mcu7t5v0__nor3_1
XTAP_TAPCELL_ROW_9_82 VDD VSS gf180mcu_fd_sc_mcu7t5v0__filltie
XTAP_TAPCELL_ROW_0_51 VDD VSS gf180mcu_fd_sc_mcu7t5v0__filltie
XFILLER_11_226 VDD VDD VSS VSS gf180mcu_fd_sc_mcu7t5v0__fillcap_8
XFILLER_18_26 VDD VDD VSS VSS gf180mcu_fd_sc_mcu7t5v0__fill_1
XFILLER_7_208 VDD VDD VSS VSS gf180mcu_fd_sc_mcu7t5v0__fill_2
X_237_ _237_/D _237_/RN _253_/Q _237_/Q VDD VDD VSS VSS gf180mcu_fd_sc_mcu7t5v0__dffrnq_1
X_168_ _172_/A1 _166_/Z _168_/A3 _225_/D VDD VDD VSS VSS gf180mcu_fd_sc_mcu7t5v0__nor3_1
XFILLER_6_263 VDD VDD VSS VSS gf180mcu_fd_sc_mcu7t5v0__fillcap_8
XFILLER_19_189 VDD VDD VSS VSS gf180mcu_fd_sc_mcu7t5v0__fillcap_16
XFILLER_3_244 VDD VDD VSS VSS gf180mcu_fd_sc_mcu7t5v0__fillcap_16
XFILLER_15_27 VDD VDD VSS VSS gf180mcu_fd_sc_mcu7t5v0__fillcap_4
XTAP_TAPCELL_ROW_6_72 VDD VSS gf180mcu_fd_sc_mcu7t5v0__filltie
XPHY_EDGE_ROW_1_Right_1 VDD VSS gf180mcu_fd_sc_mcu7t5v0__endcap
XFILLER_11_6 VDD VDD VSS VSS gf180mcu_fd_sc_mcu7t5v0__fill_1
XTAP_TAPCELL_ROW_17_110 VDD VSS gf180mcu_fd_sc_mcu7t5v0__filltie
XFILLER_7_94 VDD VDD VSS VSS gf180mcu_fd_sc_mcu7t5v0__fill_1
XFILLER_12_140 VDD VDD VSS VSS gf180mcu_fd_sc_mcu7t5v0__fillcap_16
XTAP_TAPCELL_ROW_3_62 VDD VSS gf180mcu_fd_sc_mcu7t5v0__filltie
XFILLER_12_39 VDD VDD VSS VSS gf180mcu_fd_sc_mcu7t5v0__fill_1
XFILLER_13_93 VDD VDD VSS VSS gf180mcu_fd_sc_mcu7t5v0__fill_2
X_253_ _253_/D _221_/I _253_/CLK _253_/Q VDD VDD VSS VSS gf180mcu_fd_sc_mcu7t5v0__dffrnq_1
X_184_ _239_/Q _180_/Z _185_/A3 VDD VDD VSS VSS gf180mcu_fd_sc_mcu7t5v0__nor2_1
XTAP_TAPCELL_ROW_9_83 VDD VSS gf180mcu_fd_sc_mcu7t5v0__filltie
XTAP_TAPCELL_ROW_0_52 VDD VSS gf180mcu_fd_sc_mcu7t5v0__filltie
X_236_ _236_/D _236_/RN _209_/A1 _236_/Q VDD VDD VSS VSS gf180mcu_fd_sc_mcu7t5v0__dffrnq_1
X_167_ _225_/Q _163_/Z _168_/A3 VDD VDD VSS VSS gf180mcu_fd_sc_mcu7t5v0__nor2_1
XFILLER_3_212 VDD VDD VSS VSS gf180mcu_fd_sc_mcu7t5v0__fillcap_32
XFILLER_19_157 VDD VDD VSS VSS gf180mcu_fd_sc_mcu7t5v0__fillcap_32
X_219_ _219_/I _244_/RN VDD VDD VSS VSS gf180mcu_fd_sc_mcu7t5v0__clkinv_1
XTAP_TAPCELL_ROW_6_73 VDD VSS gf180mcu_fd_sc_mcu7t5v0__filltie
XPHY_EDGE_ROW_11_Left_34 VDD VSS gf180mcu_fd_sc_mcu7t5v0__endcap
XFILLER_15_193 VDD VDD VSS VSS gf180mcu_fd_sc_mcu7t5v0__fill_1
XFILLER_22_108 VDD VDD VSS VSS gf180mcu_fd_sc_mcu7t5v0__fill_1
Xclkbuf_0_clk clk clkbuf_0_clk/Z VDD VDD VSS VSS gf180mcu_fd_sc_mcu7t5v0__clkbuf_16
XTAP_TAPCELL_ROW_17_111 VDD VSS gf180mcu_fd_sc_mcu7t5v0__filltie
XPHY_EDGE_ROW_15_Right_15 VDD VSS gf180mcu_fd_sc_mcu7t5v0__endcap
XFILLER_5_104 VDD VDD VSS VSS gf180mcu_fd_sc_mcu7t5v0__fillcap_8
XFILLER_5_137 VDD VDD VSS VSS gf180mcu_fd_sc_mcu7t5v0__fill_2
XFILLER_17_244 VDD VDD VSS VSS gf180mcu_fd_sc_mcu7t5v0__fillcap_16
XFILLER_2_107 VDD VDD VSS VSS gf180mcu_fd_sc_mcu7t5v0__fillcap_64
XFILLER_13_50 VDD VDD VSS VSS gf180mcu_fd_sc_mcu7t5v0__fill_2
XFILLER_14_247 VDD VDD VSS VSS gf180mcu_fd_sc_mcu7t5v0__fillcap_8
X_252_ _252_/D _216_/I _252_/CLK _252_/Q VDD VDD VSS VSS gf180mcu_fd_sc_mcu7t5v0__dffrnq_1
X_183_ _239_/Q _180_/Z _183_/Z VDD VDD VSS VSS gf180mcu_fd_sc_mcu7t5v0__and2_1
X_235_ _235_/D _235_/RN _209_/A1 _235_/Q VDD VDD VSS VSS gf180mcu_fd_sc_mcu7t5v0__dffrnq_1
X_166_ _225_/Q _163_/Z _166_/Z VDD VDD VSS VSS gf180mcu_fd_sc_mcu7t5v0__and2_1
XFILLER_6_243 VDD VDD VSS VSS gf180mcu_fd_sc_mcu7t5v0__fill_2
XFILLER_3_268 VDD VDD VSS VSS gf180mcu_fd_sc_mcu7t5v0__fill_2
XTAP_TAPCELL_ROW_10_84 VDD VSS gf180mcu_fd_sc_mcu7t5v0__filltie
X_218_ _219_/I _243_/RN VDD VDD VSS VSS gf180mcu_fd_sc_mcu7t5v0__clkinv_1
X_149_ _146_/Z _149_/A2 _151_/A3 VDD VDD VSS VSS gf180mcu_fd_sc_mcu7t5v0__nand2_1
XFILLER_21_72 VDD VDD VSS VSS gf180mcu_fd_sc_mcu7t5v0__fillcap_32
XFILLER_12_131 VDD VDD VSS VSS gf180mcu_fd_sc_mcu7t5v0__fill_1
XFILLER_21_142 VDD VDD VSS VSS gf180mcu_fd_sc_mcu7t5v0__fillcap_64
XFILLER_8_102 VDD VDD VSS VSS gf180mcu_fd_sc_mcu7t5v0__fill_2
XFILLER_12_164 VDD VDD VSS VSS gf180mcu_fd_sc_mcu7t5v0__fillcap_4
XFILLER_8_124 VDD VDD VSS VSS gf180mcu_fd_sc_mcu7t5v0__fillcap_4
XFILLER_8_113 VDD VDD VSS VSS gf180mcu_fd_sc_mcu7t5v0__fillcap_4
X_228__27 _228_/D VDD VDD VSS VSS gf180mcu_fd_sc_mcu7t5v0__tiel
XFILLER_17_212 VDD VDD VSS VSS gf180mcu_fd_sc_mcu7t5v0__fillcap_32
XFILLER_4_171 VDD VDD VSS VSS gf180mcu_fd_sc_mcu7t5v0__fillcap_4
XTAP_TAPCELL_ROW_13_95 VDD VSS gf180mcu_fd_sc_mcu7t5v0__filltie
XFILLER_22_270 VDD VDD VSS VSS gf180mcu_fd_sc_mcu7t5v0__fill_1
X_251_ _251_/D _216_/I _252_/CLK _251_/Q VDD VDD VSS VSS gf180mcu_fd_sc_mcu7t5v0__dffsnq_2
X_182_ _193_/A1 _180_/Z _182_/A3 _238_/D VDD VDD VSS VSS gf180mcu_fd_sc_mcu7t5v0__nor3_1
X_234_ _234_/D _234_/RN _252_/CLK signal_bit_out VDD VDD VSS VSS gf180mcu_fd_sc_mcu7t5v0__dffrnq_4
X_165_ _172_/A1 _163_/Z _165_/A3 _224_/D VDD VDD VSS VSS gf180mcu_fd_sc_mcu7t5v0__nor3_1
XTAP_TAPCELL_ROW_10_85 VDD VSS gf180mcu_fd_sc_mcu7t5v0__filltie
XFILLER_19_104 VDD VDD VSS VSS gf180mcu_fd_sc_mcu7t5v0__fillcap_8
XFILLER_19_72 VDD VDD VSS VSS gf180mcu_fd_sc_mcu7t5v0__fillcap_32
X_217_ _219_/I _242_/RN VDD VDD VSS VSS gf180mcu_fd_sc_mcu7t5v0__clkinv_1
X_148_ _146_/Z _149_/A2 _148_/Z VDD VDD VSS VSS gf180mcu_fd_sc_mcu7t5v0__and2_1
XFILLER_0_206 VDD VDD VSS VSS gf180mcu_fd_sc_mcu7t5v0__fillcap_32
XFILLER_18_2 VDD VDD VSS VSS gf180mcu_fd_sc_mcu7t5v0__fillcap_4
XFILLER_7_64 VDD VDD VSS VSS gf180mcu_fd_sc_mcu7t5v0__fillcap_4
XPHY_EDGE_ROW_5_Right_5 VDD VSS gf180mcu_fd_sc_mcu7t5v0__endcap
XTAP_TAPCELL_ROW_20_119 VDD VSS gf180mcu_fd_sc_mcu7t5v0__filltie
XFILLER_17_268 VDD VDD VSS VSS gf180mcu_fd_sc_mcu7t5v0__fill_2
XFILLER_5_139 VDD VDD VSS VSS gf180mcu_fd_sc_mcu7t5v0__fill_1
XFILLER_1_142 VDD VDD VSS VSS gf180mcu_fd_sc_mcu7t5v0__fillcap_64
X_250_ _250_/D _219_/I _209_/A1 _250_/Q VDD VDD VSS VSS gf180mcu_fd_sc_mcu7t5v0__dffrnq_1
X_181_ _238_/Q _181_/A2 _182_/A3 VDD VDD VSS VSS gf180mcu_fd_sc_mcu7t5v0__nor2_1
XTAP_TAPCELL_ROW_13_96 VDD VSS gf180mcu_fd_sc_mcu7t5v0__filltie
XFILLER_1_66 VDD VDD VSS VSS gf180mcu_fd_sc_mcu7t5v0__fillcap_4
X_233_ _233_/D _233_/RN _233_/CLK _233_/Q VDD VDD VSS VSS gf180mcu_fd_sc_mcu7t5v0__dffrnq_1
X_164_ _223_/Q _222_/Q _224_/Q _165_/A3 VDD VDD VSS VSS gf180mcu_fd_sc_mcu7t5v0__aoi21_1
XFILLER_6_223 VDD VDD VSS VSS gf180mcu_fd_sc_mcu7t5v0__fillcap_16
XTAP_TAPCELL_ROW_10_86 VDD VSS gf180mcu_fd_sc_mcu7t5v0__filltie
XFILLER_19_127 VDD VDD VSS VSS gf180mcu_fd_sc_mcu7t5v0__fillcap_8
XFILLER_18_160 VDD VDD VSS VSS gf180mcu_fd_sc_mcu7t5v0__fillcap_8
X_216_ _216_/I _241_/RN VDD VDD VSS VSS gf180mcu_fd_sc_mcu7t5v0__clkinv_1
X_147_ _244_/Q _243_/Q _245_/Q _246_/Q _149_/A2 VDD VDD VSS VSS gf180mcu_fd_sc_mcu7t5v0__nor4_2
XFILLER_16_119 VDD VDD VSS VSS gf180mcu_fd_sc_mcu7t5v0__fill_2
XPHY_EDGE_ROW_15_Left_38 VDD VSS gf180mcu_fd_sc_mcu7t5v0__endcap
X_246__18 _246_/D VDD VDD VSS VSS gf180mcu_fd_sc_mcu7t5v0__tiel
XFILLER_16_30 VDD VDD VSS VSS gf180mcu_fd_sc_mcu7t5v0__fill_1
XPHY_EDGE_ROW_20_Right_20 VDD VSS gf180mcu_fd_sc_mcu7t5v0__endcap
XPHY_EDGE_ROW_11_Right_11 VDD VSS gf180mcu_fd_sc_mcu7t5v0__endcap
XFILLER_8_159 VDD VDD VSS VSS gf180mcu_fd_sc_mcu7t5v0__fill_2
XFILLER_8_104 VDD VDD VSS VSS gf180mcu_fd_sc_mcu7t5v0__fill_1
XFILLER_5_129 VDD VDD VSS VSS gf180mcu_fd_sc_mcu7t5v0__fillcap_8
X_180_ _238_/Q _237_/Q _236_/Q _235_/Q _180_/Z VDD VDD VSS VSS gf180mcu_fd_sc_mcu7t5v0__and4_1
XTAP_TAPCELL_ROW_13_97 VDD VSS gf180mcu_fd_sc_mcu7t5v0__filltie
XPHY_EDGE_ROW_18_Left_41 VDD VSS gf180mcu_fd_sc_mcu7t5v0__endcap
XFILLER_8_2 VDD VDD VSS VSS gf180mcu_fd_sc_mcu7t5v0__fillcap_4
XPHY_EDGE_ROW_3_Left_26 VDD VSS gf180mcu_fd_sc_mcu7t5v0__endcap
X_232_ _232_/D _233_/RN _233_/CLK _232_/Q VDD VDD VSS VSS gf180mcu_fd_sc_mcu7t5v0__dffrnq_1
X_163_ _223_/Q _222_/Q _224_/Q _163_/Z VDD VDD VSS VSS gf180mcu_fd_sc_mcu7t5v0__and3_1
XTAP_TAPCELL_ROW_10_87 VDD VSS gf180mcu_fd_sc_mcu7t5v0__filltie
XFILLER_10_87 VDD VDD VSS VSS gf180mcu_fd_sc_mcu7t5v0__fillcap_16
XFILLER_19_63 VDD VDD VSS VSS gf180mcu_fd_sc_mcu7t5v0__fillcap_4
XFILLER_18_172 VDD VDD VSS VSS gf180mcu_fd_sc_mcu7t5v0__fill_2
X_215_ _219_/I _240_/RN VDD VDD VSS VSS gf180mcu_fd_sc_mcu7t5v0__clkinv_1
X_146_ _145_/B _142_/B _146_/Z VDD VDD VSS VSS gf180mcu_fd_sc_mcu7t5v0__or2_1
XFILLER_15_131 VDD VDD VSS VSS gf180mcu_fd_sc_mcu7t5v0__fillcap_8
XFILLER_15_142 VDD VDD VSS VSS gf180mcu_fd_sc_mcu7t5v0__fillcap_16
XFILLER_7_88 VDD VDD VSS VSS gf180mcu_fd_sc_mcu7t5v0__fillcap_4
X_129_ _236_/Q _201_/A1 _136_/A1 VDD VDD VSS VSS gf180mcu_fd_sc_mcu7t5v0__nand2_1
XFILLER_12_123 VDD VDD VSS VSS gf180mcu_fd_sc_mcu7t5v0__fillcap_8
XFILLER_12_156 VDD VDD VSS VSS gf180mcu_fd_sc_mcu7t5v0__fillcap_8
XFILLER_4_34 VDD VDD VSS VSS gf180mcu_fd_sc_mcu7t5v0__fill_1
X_233__22 _233_/D VDD VDD VSS VSS gf180mcu_fd_sc_mcu7t5v0__tiel
XFILLER_22_240 VDD VDD VSS VSS gf180mcu_fd_sc_mcu7t5v0__fillcap_16
X_230__25 _230_/D VDD VDD VSS VSS gf180mcu_fd_sc_mcu7t5v0__tiel
XTAP_TAPCELL_ROW_0_46 VDD VSS gf180mcu_fd_sc_mcu7t5v0__filltie
X_231_ _231_/D _221_/I _233_/CLK _231_/Q VDD VDD VSS VSS gf180mcu_fd_sc_mcu7t5v0__dffrnq_1
X_162_ _172_/A1 _162_/A2 _223_/D VDD VDD VSS VSS gf180mcu_fd_sc_mcu7t5v0__nor2_1
XFILLER_6_247 VDD VDD VSS VSS gf180mcu_fd_sc_mcu7t5v0__fillcap_16
XFILLER_3_206 VDD VDD VSS VSS gf180mcu_fd_sc_mcu7t5v0__fillcap_4
Xinput1 address_in[0] input1/Z VDD VDD VSS VSS gf180mcu_fd_sc_mcu7t5v0__clkbuf_1
X_214_ _219_/I _239_/RN VDD VDD VSS VSS gf180mcu_fd_sc_mcu7t5v0__clkinv_1
X_145_ _145_/A1 _145_/A2 _145_/B _145_/C _173_/A2 VDD VDD VSS VSS gf180mcu_fd_sc_mcu7t5v0__oai211_4
XFILLER_16_2 VDD VDD VSS VSS gf180mcu_fd_sc_mcu7t5v0__fillcap_16
XFILLER_21_124 VDD VDD VSS VSS gf180mcu_fd_sc_mcu7t5v0__fillcap_16
X_128_ _177_/A2 _249_/Q _137_/A1 VDD VDD VSS VSS gf180mcu_fd_sc_mcu7t5v0__nor2_1
XFILLER_7_56 VDD VDD VSS VSS gf180mcu_fd_sc_mcu7t5v0__fillcap_8
XFILLER_12_168 VDD VDD VSS VSS gf180mcu_fd_sc_mcu7t5v0__fill_2
XTAP_TAPCELL_ROW_22_130 VDD VSS gf180mcu_fd_sc_mcu7t5v0__filltie
XFILLER_8_128 VDD VDD VSS VSS gf180mcu_fd_sc_mcu7t5v0__fill_2
XFILLER_8_117 VDD VDD VSS VSS gf180mcu_fd_sc_mcu7t5v0__fill_2
XPHY_EDGE_ROW_9_Right_9 VDD VSS gf180mcu_fd_sc_mcu7t5v0__endcap
Xfanout12 _252_/CLK _209_/A1 VDD VDD VSS VSS gf180mcu_fd_sc_mcu7t5v0__buf_2
XTAP_TAPCELL_ROW_0_47 VDD VSS gf180mcu_fd_sc_mcu7t5v0__filltie
XFILLER_13_230 VDD VDD VSS VSS gf180mcu_fd_sc_mcu7t5v0__fill_1
XFILLER_10_255 VDD VDD VSS VSS gf180mcu_fd_sc_mcu7t5v0__fill_2
X_230_ _230_/D _233_/RN _233_/CLK _230_/Q VDD VDD VSS VSS gf180mcu_fd_sc_mcu7t5v0__dffrnq_1
X_161_ _223_/Q _222_/Q _162_/A2 VDD VDD VSS VSS gf180mcu_fd_sc_mcu7t5v0__xnor2_1
XFILLER_10_34 VDD VDD VSS VSS gf180mcu_fd_sc_mcu7t5v0__fill_1
Xinput2 address_in[1] input2/Z VDD VDD VSS VSS gf180mcu_fd_sc_mcu7t5v0__clkbuf_1
X_213_ _219_/I _238_/RN VDD VDD VSS VSS gf180mcu_fd_sc_mcu7t5v0__clkinv_1
X_144_ _144_/A1 _144_/A2 _144_/B _151_/A2 VDD VDD VSS VSS gf180mcu_fd_sc_mcu7t5v0__aoi21_1
XFILLER_18_130 VDD VDD VSS VSS gf180mcu_fd_sc_mcu7t5v0__fill_1
XFILLER_18_174 VDD VDD VSS VSS gf180mcu_fd_sc_mcu7t5v0__fill_1
XFILLER_15_122 VDD VDD VSS VSS gf180mcu_fd_sc_mcu7t5v0__fill_1
X_127_ _219_/I _234_/RN VDD VDD VSS VSS gf180mcu_fd_sc_mcu7t5v0__clkinv_1
XFILLER_7_68 VDD VDD VSS VSS gf180mcu_fd_sc_mcu7t5v0__fill_2
XTAP_TAPCELL_ROW_22_131 VDD VSS gf180mcu_fd_sc_mcu7t5v0__filltie
XFILLER_17_206 VDD VDD VSS VSS gf180mcu_fd_sc_mcu7t5v0__fillcap_4
XFILLER_13_89 VDD VDD VSS VSS gf180mcu_fd_sc_mcu7t5v0__fillcap_4
XFILLER_22_264 VDD VDD VSS VSS gf180mcu_fd_sc_mcu7t5v0__fillcap_4
Xfanout13 _253_/Q _252_/CLK VDD VDD VSS VSS gf180mcu_fd_sc_mcu7t5v0__buf_2
XTAP_TAPCELL_ROW_0_48 VDD VSS gf180mcu_fd_sc_mcu7t5v0__filltie
XFILLER_13_220 VDD VDD VSS VSS gf180mcu_fd_sc_mcu7t5v0__fillcap_8
X_160_ _222_/Q _172_/A1 _222_/D VDD VDD VSS VSS gf180mcu_fd_sc_mcu7t5v0__nor2_1
XFILLER_6_2 VDD VDD VSS VSS gf180mcu_fd_sc_mcu7t5v0__fillcap_32
Xinput3 address_in[2] input3/Z VDD VDD VSS VSS gf180mcu_fd_sc_mcu7t5v0__clkbuf_1
XPHY_EDGE_ROW_18_Right_18 VDD VSS gf180mcu_fd_sc_mcu7t5v0__endcap
XFILLER_5_260 VDD VDD VSS VSS gf180mcu_fd_sc_mcu7t5v0__fillcap_4
XFILLER_19_44 VDD VDD VSS VSS gf180mcu_fd_sc_mcu7t5v0__fill_1
X_212_ _219_/I _237_/RN VDD VDD VSS VSS gf180mcu_fd_sc_mcu7t5v0__clkinv_1
X_143_ _145_/B _145_/C _144_/B VDD VDD VSS VSS gf180mcu_fd_sc_mcu7t5v0__nand2_1
XFILLER_2_241 VDD VDD VSS VSS gf180mcu_fd_sc_mcu7t5v0__fillcap_4
XFILLER_2_263 VDD VDD VSS VSS gf180mcu_fd_sc_mcu7t5v0__fillcap_8
X_126_ _126_/I _197_/A1 VDD VDD VSS VSS gf180mcu_fd_sc_mcu7t5v0__inv_1
XFILLER_21_104 VDD VDD VSS VSS gf180mcu_fd_sc_mcu7t5v0__fillcap_16
XFILLER_12_104 VDD VDD VSS VSS gf180mcu_fd_sc_mcu7t5v0__fill_1
XFILLER_12_115 VDD VDD VSS VSS gf180mcu_fd_sc_mcu7t5v0__fillcap_4
XTAP_TAPCELL_ROW_22_132 VDD VSS gf180mcu_fd_sc_mcu7t5v0__filltie
XPHY_EDGE_ROW_0_Right_0 VDD VSS gf180mcu_fd_sc_mcu7t5v0__endcap
XFILLER_8_119 VDD VDD VSS VSS gf180mcu_fd_sc_mcu7t5v0__fill_1
XFILLER_11_192 VDD VDD VSS VSS gf180mcu_fd_sc_mcu7t5v0__fill_1
XFILLER_19_270 VDD VDD VSS VSS gf180mcu_fd_sc_mcu7t5v0__fill_1
XFILLER_4_177 VDD VDD VSS VSS gf180mcu_fd_sc_mcu7t5v0__fillcap_64
XFILLER_4_37 VDD VDD VSS VSS gf180mcu_fd_sc_mcu7t5v0__fillcap_64
XFILLER_1_136 VDD VDD VSS VSS gf180mcu_fd_sc_mcu7t5v0__fillcap_4
Xfanout14 _216_/I _233_/RN VDD VDD VSS VSS gf180mcu_fd_sc_mcu7t5v0__clkbuf_4
XTAP_TAPCELL_ROW_0_49 VDD VSS gf180mcu_fd_sc_mcu7t5v0__filltie
XFILLER_8_6 VDD VDD VSS VSS gf180mcu_fd_sc_mcu7t5v0__fill_2
XFILLER_9_203 VDD VDD VSS VSS gf180mcu_fd_sc_mcu7t5v0__fillcap_4
XFILLER_6_239 VDD VDD VSS VSS gf180mcu_fd_sc_mcu7t5v0__fillcap_4
Xinput4 data_in[0] input4/Z VDD VDD VSS VSS gf180mcu_fd_sc_mcu7t5v0__clkbuf_1
XFILLER_19_67 VDD VDD VSS VSS gf180mcu_fd_sc_mcu7t5v0__fill_2
X_211_ _221_/I _236_/RN VDD VDD VSS VSS gf180mcu_fd_sc_mcu7t5v0__clkinv_1
X_142_ _142_/A1 _252_/Q _142_/B _145_/C VDD VDD VSS VSS gf180mcu_fd_sc_mcu7t5v0__aoi21_2
XFILLER_21_68 VDD VDD VSS VSS gf180mcu_fd_sc_mcu7t5v0__fill_2
X_125_ _235_/Q _177_/A3 VDD VDD VSS VSS gf180mcu_fd_sc_mcu7t5v0__clkinv_1
XTAP_TAPCELL_ROW_11_90 VDD VSS gf180mcu_fd_sc_mcu7t5v0__filltie
XPHY_EDGE_ROW_10_Left_33 VDD VSS gf180mcu_fd_sc_mcu7t5v0__endcap
XFILLER_19_260 VDD VDD VSS VSS gf180mcu_fd_sc_mcu7t5v0__fillcap_8
XFILLER_16_263 VDD VDD VSS VSS gf180mcu_fd_sc_mcu7t5v0__fillcap_8
XFILLER_4_101 VDD VDD VSS VSS gf180mcu_fd_sc_mcu7t5v0__fillcap_4
Xfanout15 _216_/I _221_/I VDD VDD VSS VSS gf180mcu_fd_sc_mcu7t5v0__buf_2
XFILLER_9_226 VDD VDD VSS VSS gf180mcu_fd_sc_mcu7t5v0__fill_2
XFILLER_10_247 VDD VDD VSS VSS gf180mcu_fd_sc_mcu7t5v0__fill_2
Xinput5 data_in[1] input5/Z VDD VDD VSS VSS gf180mcu_fd_sc_mcu7t5v0__clkbuf_1
XFILLER_18_177 VDD VDD VSS VSS gf180mcu_fd_sc_mcu7t5v0__fillcap_64
X_210_ _221_/I _235_/RN VDD VDD VSS VSS gf180mcu_fd_sc_mcu7t5v0__clkinv_1
X_141_ _241_/Q _242_/Q _142_/B VDD VDD VSS VSS gf180mcu_fd_sc_mcu7t5v0__nand2_1
XFILLER_15_114 VDD VDD VSS VSS gf180mcu_fd_sc_mcu7t5v0__fillcap_8
XFILLER_15_158 VDD VDD VSS VSS gf180mcu_fd_sc_mcu7t5v0__fill_1
XFILLER_21_36 VDD VDD VSS VSS gf180mcu_fd_sc_mcu7t5v0__fillcap_32
X_124_ _248_/Q _199_/A1 VDD VDD VSS VSS gf180mcu_fd_sc_mcu7t5v0__clkinv_1
XTAP_TAPCELL_ROW_17_109 VDD VSS gf180mcu_fd_sc_mcu7t5v0__filltie
XFILLER_11_80 VDD VDD VSS VSS gf180mcu_fd_sc_mcu7t5v0__fillcap_16
XFILLER_11_150 VDD VDD VSS VSS gf180mcu_fd_sc_mcu7t5v0__fillcap_16
XFILLER_7_154 VDD VDD VSS VSS gf180mcu_fd_sc_mcu7t5v0__fillcap_4
XFILLER_17_90 VDD VDD VSS VSS gf180mcu_fd_sc_mcu7t5v0__fillcap_4
XFILLER_22_256 VDD VDD VSS VSS gf180mcu_fd_sc_mcu7t5v0__fillcap_8
Xfanout16 _216_/I _219_/I VDD VDD VSS VSS gf180mcu_fd_sc_mcu7t5v0__buf_2
XFILLER_8_8 VDD VDD VSS VSS gf180mcu_fd_sc_mcu7t5v0__fill_1
XFILLER_19_36 VDD VDD VSS VSS gf180mcu_fd_sc_mcu7t5v0__fillcap_8
XFILLER_19_69 VDD VDD VSS VSS gf180mcu_fd_sc_mcu7t5v0__fill_1